/*--------------------------------*- C++ -*----------------------------------*\
| =========                 |                                                 |
| \\      /  F ield         | OpenFOAM: The Open Source CFD Toolbox           |
|  \\    /   O peration     | Version:  v1806                                 |
|   \\  /    A nd           | Web:      www.OpenFOAM.com                      |
|    \\/     M anipulation  |                                                 |
\*---------------------------------------------------------------------------*/
FoamFile
{
    version     2.0;
    format      ascii;
    class       vectorField;
    location    "constant";
    object      cloud_of_points;
}
// * * * * * * * * * * * * * * * * * * * * * * * * * * * * * * * * * * * * * //

7210(
(	0.35		0.5		0.5		)
(	0.5		0.35		0.5		)
(	0.5		0.65		0.5		)
(	0.5		0.5		0.35		)
(	0.5		0.5		0.65		)
(	0.5		0.5		0.5		)
(	0.25		0.5		0.5		)
(	0.5		0.25		0.5		)
(	0.5		0.75		0.5		)
(	0.5		0.5		0.25		)
(	0.5		0.5		0.75		)
(	0.5		0.649277709		0.514702571		)
(	0.5		0.6471177921		0.5292635483		)
(	0.5		0.6435410504		0.5435427016		)
(	0.5		0.6385819299		0.5574025149		)
(	0.5		0.6322881897		0.5707095105		)
(	0.5		0.6247204418		0.583335535		)
(	0.5		0.615951568		0.5951589926		)
(	0.5		0.6060660172		0.6060660172		)
(	0.5		0.5951589926		0.615951568		)
(	0.5		0.583335535		0.6247204418		)
(	0.5		0.5707095105		0.6322881897		)
(	0.5		0.5574025149		0.6385819299		)
(	0.5		0.5435427016		0.6435410504		)
(	0.5		0.5292635483		0.6471177921		)
(	0.5		0.514702571		0.649277709		)
(	0.5		0.350722291		0.514702571		)
(	0.5		0.3528822079		0.5292635483		)
(	0.5		0.3564589496		0.5435427016		)
(	0.5		0.3614180701		0.5574025149		)
(	0.5		0.3677118103		0.5707095105		)
(	0.5		0.3752795582		0.583335535		)
(	0.5		0.384048432		0.5951589926		)
(	0.5		0.3939339828		0.6060660172		)
(	0.5		0.4048410074		0.615951568		)
(	0.5		0.416664465		0.6247204418		)
(	0.5		0.4292904895		0.6322881897		)
(	0.5		0.4425974851		0.6385819299		)
(	0.5		0.4564572984		0.6435410504		)
(	0.5		0.4707364517		0.6471177921		)
(	0.5		0.485297429		0.649277709		)
(	0.5		0.649277709		0.485297429		)
(	0.5		0.6471177921		0.4707364517		)
(	0.5		0.6435410504		0.4564572984		)
(	0.5		0.6385819299		0.4425974851		)
(	0.5		0.6322881897		0.4292904895		)
(	0.5		0.6247204418		0.416664465		)
(	0.5		0.615951568		0.4048410074		)
(	0.5		0.6060660172		0.3939339828		)
(	0.5		0.5951589926		0.384048432		)
(	0.5		0.583335535		0.3752795582		)
(	0.5		0.5707095105		0.3677118103		)
(	0.5		0.5574025149		0.3614180701		)
(	0.5		0.5435427016		0.3564589496		)
(	0.5		0.5292635483		0.3528822079		)
(	0.5		0.514702571		0.350722291		)
(	0.5		0.485297429		0.350722291		)
(	0.5		0.4707364517		0.3528822079		)
(	0.5		0.4564572984		0.3564589496		)
(	0.5		0.4425974851		0.3614180701		)
(	0.5		0.4292904895		0.3677118103		)
(	0.5		0.416664465		0.3752795582		)
(	0.5		0.4048410074		0.384048432		)
(	0.5		0.3939339828		0.3939339828		)
(	0.5		0.384048432		0.4048410074		)
(	0.5		0.3752795582		0.416664465		)
(	0.5		0.3677118103		0.4292904895		)
(	0.5		0.3614180701		0.4425974851		)
(	0.5		0.3564589496		0.4564572984		)
(	0.5		0.3528822079		0.4707364517		)
(	0.5		0.350722291		0.485297429		)
(	0.485297429		0.5		0.649277709		)
(	0.4707364517		0.5		0.6471177921		)
(	0.4564572984		0.5		0.6435410504		)
(	0.4425974851		0.5		0.6385819299		)
(	0.4292904895		0.5		0.6322881897		)
(	0.416664465		0.5		0.6247204418		)
(	0.4048410074		0.5		0.615951568		)
(	0.3939339828		0.5		0.6060660172		)
(	0.384048432		0.5		0.5951589926		)
(	0.3752795582		0.5		0.583335535		)
(	0.3677118103		0.5		0.5707095105		)
(	0.3614180701		0.5		0.5574025149		)
(	0.3564589496		0.5		0.5435427016		)
(	0.3528822079		0.5		0.5292635483		)
(	0.350722291		0.5		0.514702571		)
(	0.350722291		0.5		0.485297429		)
(	0.3528822079		0.5		0.4707364517		)
(	0.3564589496		0.5		0.4564572984		)
(	0.3614180701		0.5		0.4425974851		)
(	0.3677118103		0.5		0.4292904895		)
(	0.3752795582		0.5		0.416664465		)
(	0.384048432		0.5		0.4048410074		)
(	0.3939339828		0.5		0.3939339828		)
(	0.4048410074		0.5		0.384048432		)
(	0.416664465		0.5		0.3752795582		)
(	0.4292904895		0.5		0.3677118103		)
(	0.4425974851		0.5		0.3614180701		)
(	0.4564572984		0.5		0.3564589496		)
(	0.4707364517		0.5		0.3528822079		)
(	0.485297429		0.5		0.350722291		)
(	0.485297429		0.350722291		0.5		)
(	0.4707364517		0.3528822079		0.5		)
(	0.4564572984		0.3564589496		0.5		)
(	0.4425974851		0.3614180701		0.5		)
(	0.4292904895		0.3677118103		0.5		)
(	0.416664465		0.3752795582		0.5		)
(	0.4048410074		0.384048432		0.5		)
(	0.3939339828		0.3939339828		0.5		)
(	0.384048432		0.4048410074		0.5		)
(	0.3752795582		0.416664465		0.5		)
(	0.3677118103		0.4292904895		0.5		)
(	0.3614180701		0.4425974851		0.5		)
(	0.3564589496		0.4564572984		0.5		)
(	0.3528822079		0.4707364517		0.5		)
(	0.350722291		0.485297429		0.5		)
(	0.350722291		0.514702571		0.5		)
(	0.3528822079		0.5292635483		0.5		)
(	0.3564589496		0.5435427016		0.5		)
(	0.3614180701		0.5574025149		0.5		)
(	0.3677118103		0.5707095105		0.5		)
(	0.3752795582		0.583335535		0.5		)
(	0.384048432		0.5951589926		0.5		)
(	0.3939339828		0.6060660172		0.5		)
(	0.4048410074		0.615951568		0.5		)
(	0.416664465		0.6247204418		0.5		)
(	0.4292904895		0.6322881897		0.5		)
(	0.4425974851		0.6385819299		0.5		)
(	0.4564572984		0.6435410504		0.5		)
(	0.4707364517		0.6471177921		0.5		)
(	0.485297429		0.649277709		0.5		)
(	0.5		0.2512038183		0.5245042851		)
(	0.5		0.2548036799		0.5487725805		)
(	0.5		0.2607649161		0.5725711693		)
(	0.5		0.2690301169		0.5956708581		)
(	0.5		0.2795196839		0.6178491842		)
(	0.5		0.2921325969		0.6388925583		)
(	0.5		0.3067473867		0.658598321		)
(	0.5		0.3232233047		0.6767766953		)
(	0.5		0.341401679		0.6932526133		)
(	0.5		0.3611074417		0.7078674031		)
(	0.5		0.3821508158		0.7204803161		)
(	0.5		0.4043291419		0.7309698831		)
(	0.5		0.4274288307		0.7392350839		)
(	0.5		0.4512274195		0.7451963201		)
(	0.5		0.4754957149		0.7487961817		)
(	0.5		0.5245042851		0.7487961817		)
(	0.5		0.5487725805		0.7451963201		)
(	0.5		0.5725711693		0.7392350839		)
(	0.5		0.5956708581		0.7309698831		)
(	0.5		0.6178491842		0.7204803161		)
(	0.5		0.6388925583		0.7078674031		)
(	0.5		0.658598321		0.6932526133		)
(	0.5		0.6767766953		0.6767766953		)
(	0.5		0.6932526133		0.658598321		)
(	0.5		0.7078674031		0.6388925583		)
(	0.5		0.7204803161		0.6178491842		)
(	0.5		0.7309698831		0.5956708581		)
(	0.5		0.7392350839		0.5725711693		)
(	0.5		0.7451963201		0.5487725805		)
(	0.5		0.7487961817		0.5245042851		)
(	0.5		0.2512038183		0.4754957149		)
(	0.5		0.2548036799		0.4512274195		)
(	0.5		0.2607649161		0.4274288307		)
(	0.5		0.2690301169		0.4043291419		)
(	0.5		0.2795196839		0.3821508158		)
(	0.5		0.2921325969		0.3611074417		)
(	0.5		0.3067473867		0.341401679		)
(	0.5		0.3232233047		0.3232233047		)
(	0.5		0.341401679		0.3067473867		)
(	0.5		0.3611074417		0.2921325969		)
(	0.5		0.3821508158		0.2795196839		)
(	0.5		0.4043291419		0.2690301169		)
(	0.5		0.4274288307		0.2607649161		)
(	0.5		0.4512274195		0.2548036799		)
(	0.5		0.4754957149		0.2512038183		)
(	0.5		0.7487961817		0.4754957149		)
(	0.5		0.7451963201		0.4512274195		)
(	0.5		0.7392350839		0.4274288307		)
(	0.5		0.7309698831		0.4043291419		)
(	0.5		0.7204803161		0.3821508158		)
(	0.5		0.7078674031		0.3611074417		)
(	0.5		0.6932526133		0.341401679		)
(	0.5		0.6767766953		0.3232233047		)
(	0.5		0.658598321		0.3067473867		)
(	0.5		0.6388925583		0.2921325969		)
(	0.5		0.6178491842		0.2795196839		)
(	0.5		0.5956708581		0.2690301169		)
(	0.5		0.5725711693		0.2607649161		)
(	0.5		0.5487725805		0.2548036799		)
(	0.5		0.5245042851		0.2512038183		)
(	0.2512038183		0.5		0.5245042851		)
(	0.2548036799		0.5		0.5487725805		)
(	0.2607649161		0.5		0.5725711693		)
(	0.2690301169		0.5		0.5956708581		)
(	0.2795196839		0.5		0.6178491842		)
(	0.2921325969		0.5		0.6388925583		)
(	0.3067473867		0.5		0.658598321		)
(	0.3232233047		0.5		0.6767766953		)
(	0.341401679		0.5		0.6932526133		)
(	0.3611074417		0.5		0.7078674031		)
(	0.3821508158		0.5		0.7204803161		)
(	0.4043291419		0.5		0.7309698831		)
(	0.4274288307		0.5		0.7392350839		)
(	0.4512274195		0.5		0.7451963201		)
(	0.4754957149		0.5		0.7487961817		)
(	0.2512038183		0.5		0.4754957149		)
(	0.2548036799		0.5		0.4512274195		)
(	0.2607649161		0.5		0.4274288307		)
(	0.2690301169		0.5		0.4043291419		)
(	0.2795196839		0.5		0.3821508158		)
(	0.2921325969		0.5		0.3611074417		)
(	0.3067473867		0.5		0.341401679		)
(	0.3232233047		0.5		0.3232233047		)
(	0.341401679		0.5		0.3067473867		)
(	0.3611074417		0.5		0.2921325969		)
(	0.3821508158		0.5		0.2795196839		)
(	0.4043291419		0.5		0.2690301169		)
(	0.4274288307		0.5		0.2607649161		)
(	0.4512274195		0.5		0.2548036799		)
(	0.4754957149		0.5		0.2512038183		)
(	0.4754957149		0.2512038183		0.5		)
(	0.4512274195		0.2548036799		0.5		)
(	0.4274288307		0.2607649161		0.5		)
(	0.4043291419		0.2690301169		0.5		)
(	0.3821508158		0.2795196839		0.5		)
(	0.3611074417		0.2921325969		0.5		)
(	0.341401679		0.3067473867		0.5		)
(	0.3232233047		0.3232233047		0.5		)
(	0.3067473867		0.341401679		0.5		)
(	0.2921325969		0.3611074417		0.5		)
(	0.2795196839		0.3821508158		0.5		)
(	0.2690301169		0.4043291419		0.5		)
(	0.2607649161		0.4274288307		0.5		)
(	0.2548036799		0.4512274195		0.5		)
(	0.2512038183		0.4754957149		0.5		)
(	0.2512038183		0.5245042851		0.5		)
(	0.2548036799		0.5487725805		0.5		)
(	0.2607649161		0.5725711693		0.5		)
(	0.2690301169		0.5956708581		0.5		)
(	0.2795196839		0.6178491842		0.5		)
(	0.2921325969		0.6388925583		0.5		)
(	0.3067473867		0.658598321		0.5		)
(	0.3232233047		0.6767766953		0.5		)
(	0.341401679		0.6932526133		0.5		)
(	0.3611074417		0.7078674031		0.5		)
(	0.3821508158		0.7204803161		0.5		)
(	0.4043291419		0.7309698831		0.5		)
(	0.4274288307		0.7392350839		0.5		)
(	0.4512274195		0.7451963201		0.5		)
(	0.4754957149		0.7487961817		0.5		)
(	0.5		0.5		0.2625		)
(	0.5		0.5		0.275		)
(	0.5		0.5		0.2875		)
(	0.5		0.5		0.3		)
(	0.5		0.5		0.3125		)
(	0.5		0.5		0.325		)
(	0.5		0.5		0.3375		)
(	0.5		0.5		0.6625		)
(	0.5		0.5		0.675		)
(	0.5		0.5		0.6875		)
(	0.5		0.5		0.7		)
(	0.5		0.5		0.7125		)
(	0.5		0.5		0.725		)
(	0.5		0.5		0.7375		)
(	0.5		0.3375		0.5		)
(	0.5		0.325		0.5		)
(	0.5		0.3125		0.5		)
(	0.5		0.3		0.5		)
(	0.5		0.2875		0.5		)
(	0.5		0.275		0.5		)
(	0.5		0.2625		0.5		)
(	0.5		0.6625		0.5		)
(	0.5		0.675		0.5		)
(	0.5		0.6875		0.5		)
(	0.5		0.7		0.5		)
(	0.5		0.7125		0.5		)
(	0.5		0.725		0.5		)
(	0.5		0.7375		0.5		)
(	0.3979378734		0.7041240918		0.6020621256		)
(	0.2958467613		0.6020597585		0.6020061802		)
(	0.3895804863		0.602119922		0.6996974024		)
(	0.4471678253		0.697167327		0.6443392063		)
(	0.4475518546		0.7226446706		0.600888764		)
(	0.398846208		0.7225799879		0.5522116783		)
(	0.4498499266		0.7397288891		0.5501500733		)
(	0.3550141529		0.6967666129		0.5525547733		)
(	0.2772631572		0.5520932383		0.6008691895		)
(	0.3027578626		0.5526745892		0.6442945838		)
(	0.2600696992		0.5496826494		0.5496496236		)
(	0.2773465153		0.6008038393		0.5525738695		)
(	0.3028145417		0.6443258329		0.5528010321		)
(	0.441270309		0.6451694607		0.694875989		)
(	0.3892345197		0.6596432765		0.6573055392		)
(	0.3365145457		0.605732017		0.6568223416		)
(	0.3394090497		0.6594889687		0.6061782254		)
(	0.349968018		0.5518741762		0.693130718		)
(	0.4486701577		0.5495191347		0.739610314		)
(	0.3944723128		0.5522900662		0.7205213283		)
(	0.4430504965		0.6015160715		0.7212492741		)
(	0.4733558025		0.6885851244		0.6619436247		)
(	0.4734005743		0.7036917186		0.6424856285		)
(	0.4470904948		0.7109792225		0.6232410318		)
(	0.4735405731		0.7171786296		0.6209683495		)
(	0.4218808216		0.7023719147		0.6242698761		)
(	0.4221789104		0.7146100373		0.6019137376		)
(	0.473615896		0.7281043522		0.598854861		)
(	0.3978127315		0.7145684485		0.5775766915		)
(	0.4224600602		0.7247539654		0.5772865627		)
(	0.4238589692		0.7325080699		0.5514056501		)
(	0.448403034		0.7325257565		0.5759573938		)
(	0.4010265854		0.7280678737		0.5262546793		)
(	0.4262077973		0.7375172544		0.5253034516		)
(	0.4746873951		0.7375757535		0.5736004986		)
(	0.3753571309		0.7022060809		0.577954192		)
(	0.3762517513		0.7107601868		0.5525976672		)
(	0.3572238578		0.7035099632		0.5264323304		)
(	0.3788521745		0.7171023331		0.5262636884		)
(	0.3375635959		0.6881999063		0.5263668333		)
(	0.4746987965		0.7436996302		0.5497025084		)
(	0.4502847377		0.7437071244		0.5252037736		)
(	0.4753759694		0.7475627481		0.5246240305		)
(	0.2961589532		0.5265017428		0.6422901446		)
(	0.3113774509		0.5265546953		0.6619147372		)
(	0.2827864228		0.5262778613		0.6209451773		)
(	0.2889372358		0.5526516524		0.6232084131		)
(	0.2718249234		0.5262202565		0.5987351637		)
(	0.285293501		0.5774908322		0.6019621999		)
(	0.2975476395		0.5779931587		0.6242179895		)
(	0.2623211498		0.5250764713		0.5733480384		)
(	0.2673011959		0.5511882628		0.5757035555		)
(	0.2673233792		0.5756296532		0.5513979151		)
(	0.2751784926		0.5771782449		0.5774519744		)
(	0.2623220211		0.5733571765		0.5250579933		)
(	0.2718482256		0.5986993449		0.5265557368		)
(	0.28540684		0.6019863871		0.5777724406		)
(	0.256216244		0.5249663126		0.5494587053		)
(	0.2524317587		0.5245796779		0.5246131131		)
(	0.2562178305		0.5494749793		0.5249495543		)
(	0.2889830843		0.6231539506		0.5529619272		)
(	0.2976001356		0.6242550109		0.5780703988		)
(	0.2828039249		0.6209227359		0.5265246472		)
(	0.29620568		0.6423168294		0.5267169463		)
(	0.3114057809		0.6619356589		0.5266282351		)
(	0.4703475618		0.662529085		0.6876300334		)
(	0.4435739147		0.6729503759		0.6714767168		)
(	0.4145032599		0.6537154207		0.6776566263		)
(	0.4170772331		0.6801807089		0.6521799161		)
(	0.4141466644		0.6247960617		0.69888476		)
(	0.3882605041		0.6322390237		0.6803527811		)
(	0.3924825365		0.6837700723		0.631028835		)
(	0.3617605017		0.6048334797		0.6799993962		)
(	0.3609143779		0.6340754759		0.658678784		)
(	0.3361618092		0.6340835859		0.6329610439		)
(	0.3629161111		0.6612173858		0.6331050785		)
(	0.3143457252		0.6046509215		0.630693056		)
(	0.3155327498		0.6320177455		0.6050863858		)
(	0.3670570585		0.6837413743		0.6051916426		)
(	0.3682076143		0.5774827608		0.6978059373		)
(	0.3418431645		0.5795059635		0.6765367304		)
(	0.3247479375		0.5527339827		0.6703110145		)
(	0.317862371		0.579682564		0.651580253		)
(	0.3350614721		0.5260169772		0.6860602023		)
(	0.3458149421		0.6797560651		0.5800919782		)
(	0.3193363777		0.6531056531		0.580120625		)
(	0.3269473569		0.6723887451		0.5532438097		)
(	0.4753782973		0.5246216922		0.7475632122		)
(	0.4496976674		0.5248837932		0.7436195234		)
(	0.4740812511		0.5494128497		0.743693637		)
(	0.4254458521		0.5248968189		0.7373222017		)
(	0.4739232652		0.5732931444		0.7375881287		)
(	0.3988038158		0.5263001661		0.72708508		)
(	0.4210090516		0.5511443127		0.7316132322		)
(	0.4173621051		0.5776329907		0.7228095534		)
(	0.4455147101		0.5759747203		0.7318602921		)
(	0.3913857214		0.5776631018		0.7113560529		)
(	0.4156113528		0.6023649468		0.7118961394		)
(	0.4713214113		0.5992721263		0.7276457412		)
(	0.3763666872		0.5262504031		0.7156982158		)
(	0.354653606		0.5260958257		0.7017261352		)
(	0.3714629926		0.5522859052		0.7079529318		)
(	0.4712410114		0.6213696345		0.7166617926		)
(	0.4418567606		0.6239902819		0.7091549036		)
(	0.4704160951		0.6430829101		0.7028597382		)
(	0.295846761		0.3979938201		0.6020597584		)
(	0.3895804861		0.3003025977		0.602119922		)
(	0.3979378731		0.3979378743		0.7041240916		)
(	0.2772631571		0.3991308107		0.5520932382		)
(	0.3027578625		0.3557054164		0.552674589		)
(	0.2600696993		0.4503503763		0.5496826494		)
(	0.2773465153		0.4474261307		0.6008038392		)
(	0.3028145415		0.4471989681		0.6443258328		)
(	0.4486701579		0.2603896859		0.5495191346		)
(	0.3944723125		0.2794786719		0.5522900662		)
(	0.4430504964		0.2787507259		0.6015160714		)
(	0.3499680179		0.3068692821		0.5518741761		)
(	0.4412703089		0.305124011		0.6451694606		)
(	0.4471678252		0.3556607936		0.6971673269		)
(	0.4475518544		0.3991112359		0.7226446705		)
(	0.3988462079		0.4477883216		0.7225799879		)
(	0.4498499266		0.4498499267		0.7397288891		)
(	0.3550141528		0.4474452265		0.6967666128		)
(	0.3365145454		0.3431776584		0.6057320166		)
(	0.3394090494		0.3938217747		0.6594889685		)
(	0.3892345193		0.3426944609		0.6596432763		)
(	0.2961589531		0.3577098555		0.5265017427		)
(	0.3113774508		0.3380852629		0.5265546952		)
(	0.2827864228		0.3790548228		0.5262778613		)
(	0.2889372356		0.3767915871		0.5526516523		)
(	0.2718249233		0.4012648364		0.5262202565		)
(	0.2852935008		0.3980378004		0.5774908321		)
(	0.2975476393		0.3757820107		0.5779931586		)
(	0.2623211498		0.4266519616		0.5250764713		)
(	0.2673011959		0.4242964445		0.5511882628		)
(	0.2673233792		0.4486020849		0.5756296532		)
(	0.2751784925		0.4225480259		0.5771782448		)
(	0.2623220212		0.4749420067		0.5733571765		)
(	0.2718482256		0.4734442633		0.5986993449		)
(	0.2854068398		0.4222275596		0.601986387		)
(	0.256216244		0.4505412947		0.5249663126		)
(	0.2524317587		0.4753868869		0.5245796779		)
(	0.2562178305		0.4750504457		0.5494749793		)
(	0.2889830842		0.447038073		0.6231539505		)
(	0.2976001355		0.4219296014		0.6242550108		)
(	0.2828039249		0.4734753528		0.6209227358		)
(	0.29620568		0.4732830538		0.6423168293		)
(	0.3114057809		0.473371765		0.6619356589		)
(	0.4753783011		0.2524367888		0.5246217059		)
(	0.4496976675		0.2563804766		0.524883793		)
(	0.4740812512		0.2563063629		0.5494128497		)
(	0.4254458522		0.2626777982		0.5248968188		)
(	0.4739232654		0.2624118713		0.5732931444		)
(	0.3988038156		0.2729149201		0.5263001661		)
(	0.4210090516		0.2683867678		0.5511443127		)
(	0.4173621049		0.2771904467		0.5776329906		)
(	0.4455147101		0.2681397079		0.5759747203		)
(	0.3913857212		0.2886439472		0.5776631018		)
(	0.4156113526		0.2881038606		0.6023649467		)
(	0.4713214113		0.2723542588		0.5992721263		)
(	0.3763666871		0.2843017842		0.5262504031		)
(	0.3546536059		0.2982738648		0.5260958257		)
(	0.3714629924		0.2920470683		0.5522859052		)
(	0.335061472		0.3139397977		0.5260169772		)
(	0.3682076141		0.3021940627		0.5774827607		)
(	0.4712410113		0.2833382073		0.6213696344		)
(	0.4418567605		0.2908450964		0.6239902819		)
(	0.4704160951		0.2971402617		0.6430829101		)
(	0.4141466643		0.30111524		0.6247960616		)
(	0.4703475619		0.3123699666		0.662529085		)
(	0.4733558025		0.3380563752		0.6885851243		)
(	0.4734005743		0.3575143714		0.7036917185		)
(	0.4470904948		0.3767589681		0.7109792224		)
(	0.473540573		0.3790316505		0.7171786296		)
(	0.4218808214		0.3757301238		0.7023719146		)
(	0.4221789101		0.3980862623		0.7146100371		)
(	0.4736158959		0.401145139		0.7281043522		)
(	0.3978127313		0.4224233084		0.7145684484		)
(	0.4224600601		0.4227134372		0.7247539653		)
(	0.4238589691		0.4485943498		0.7325080699		)
(	0.4484030339		0.4240426062		0.7325257564		)
(	0.4010265853		0.4737453206		0.7280678737		)
(	0.4262077973		0.4746965485		0.7375172544		)
(	0.4746873952		0.4263995013		0.7375757535		)
(	0.3753571307		0.4220458079		0.7022060807		)
(	0.3762517512		0.4474023326		0.7107601867		)
(	0.3572238577		0.4735676696		0.7035099631		)
(	0.3788521744		0.4737363115		0.7171023331		)
(	0.3375635959		0.4736331666		0.6881999062		)
(	0.4746987965		0.4502974916		0.7436996302		)
(	0.4502847377		0.4747962264		0.7437071244		)
(	0.4753759694		0.4753759695		0.7475627481		)
(	0.3247479373		0.3296889857		0.5527339826		)
(	0.3178623708		0.3484197471		0.5796825637		)
(	0.3418431644		0.3234632697		0.5795059633		)
(	0.3143457249		0.3693069442		0.6046509212		)
(	0.3617605014		0.3200006039		0.6048334795		)
(	0.3155327495		0.3949136145		0.6320177453		)
(	0.3361618088		0.3670389562		0.6340835856		)
(	0.3629161107		0.3668949216		0.6612173855		)
(	0.3609143776		0.341321216		0.6340754756		)
(	0.3670570582		0.3948083574		0.6837413741		)
(	0.3924825362		0.368971165		0.683770072		)
(	0.3882605038		0.319647219		0.6322390236		)
(	0.3193363774		0.4198793752		0.6531056529		)
(	0.3269473568		0.4467561904		0.672388745		)
(	0.3458149419		0.4199080218		0.679756065		)
(	0.4145032597		0.3223433737		0.6537154205		)
(	0.4170772329		0.3478200838		0.6801807087		)
(	0.4435739147		0.3285232831		0.6729503757		)
(	0.2951893193		0.3986279496		0.3986279501		)
(	0.3979235388		0.2958972504		0.397909532		)
(	0.3979235386		0.3979095307		0.2958972511		)
(	0.2600792544		0.4503107866		0.4503107868		)
(	0.277125827		0.4482007936		0.3992828454		)
(	0.277125827		0.3992828451		0.448200794		)
(	0.3022766051		0.448453327		0.3559569523		)
(	0.3022766052		0.355956952		0.4484533274		)
(	0.3550918638		0.3035131789		0.4461988736		)
(	0.3987837077		0.277471922		0.4476882741		)
(	0.4472033745		0.2772983919		0.3994191366		)
(	0.4501189908		0.2601023889		0.4503913202		)
(	0.4471616159		0.3028433374		0.3556485		)
(	0.3987837075		0.4476882733		0.2774719223		)
(	0.3550918634		0.4461988724		0.3035131795		)
(	0.4501189908		0.4503913199		0.260102389		)
(	0.4472033744		0.399419136		0.2772983922		)
(	0.4471616157		0.3556484992		0.302843338		)
(	0.3390402821		0.3398274545		0.3954212025		)
(	0.3390402819		0.3954212017		0.3398274552		)
(	0.3933868014		0.3401037426		0.3401037438		)
(	0.2524367868		0.4753783076		0.4753783076		)
(	0.2562201593		0.4750299211		0.4505239005		)
(	0.2562201593		0.4505239004		0.4750299212		)
(	0.2623272219		0.4749265202		0.4266312657		)
(	0.262327222		0.4266312656		0.4749265203		)
(	0.2717881839		0.4739181448		0.4013131021		)
(	0.2672476382		0.448960713		0.4243605312		)
(	0.2749289086		0.4230487042		0.4230487046		)
(	0.2672476382		0.4243605309		0.4489607133		)
(	0.2849516187		0.4229901599		0.3983944971		)
(	0.2849516187		0.3983944967		0.4229901604		)
(	0.2717881839		0.401313102		0.473918145		)
(	0.282723086		0.4738721814		0.3791361106		)
(	0.2960102907		0.4740216423		0.357826432		)
(	0.2886322719		0.4480689855		0.3770087269		)
(	0.3111691648		0.4740098469		0.3382365071		)
(	0.2968591254		0.4230422654		0.3762611937		)
(	0.2827230861		0.3791361105		0.4738721817		)
(	0.288632272		0.3770087266		0.4480689859		)
(	0.2960102908		0.3578264319		0.4740216425		)
(	0.2968591255		0.3762611933		0.423042266		)
(	0.3111691649		0.338236507		0.4740098472		)
(	0.3374266521		0.3120783884		0.4725159235		)
(	0.3571346177		0.2966235478		0.4730277698		)
(	0.3762739785		0.2893878008		0.446761169		)
(	0.3788780422		0.2828959971		0.4736310169		)
(	0.3753960178		0.2980173209		0.4214070933		)
(	0.3977570946		0.2854932958		0.4223259236		)
(	0.4009874125		0.2719558501		0.473687014		)
(	0.4219938214		0.2853783423		0.3982523703		)
(	0.422252713		0.2752769258		0.4228320061		)
(	0.4483605544		0.267345953		0.4244654907		)
(	0.423965424		0.2674045052		0.4488328321		)
(	0.4734483086		0.2718463026		0.4013040121		)
(	0.4748149501		0.2623268363		0.4266707391		)
(	0.4265125982		0.2623585726		0.4749769352		)
(	0.4218739385		0.2976394481		0.375715948		)
(	0.446903633		0.2889957149		0.3768823024		)
(	0.4734240047		0.2962880676		0.3575388998		)
(	0.4733142322		0.2827743533		0.3791658649		)
(	0.4733528725		0.3114202387		0.3380506122		)
(	0.4503684524		0.2562504787		0.4750424286		)
(	0.474825314		0.2562340819		0.4505590011		)
(	0.4752746997		0.2524414587		0.4754352255		)
(	0.3571346174		0.4730277692		0.296623548		)
(	0.3374266519		0.4725159229		0.3120783887		)
(	0.3788780421		0.4736310162		0.2828959973		)
(	0.3762739782		0.446761168		0.2893878012		)
(	0.4009874124		0.4736870136		0.2719558502		)
(	0.3977570944		0.4223259225		0.2854932963		)
(	0.3753960176		0.4214070922		0.2980173215		)
(	0.4265125981		0.4749769349		0.2623585727		)
(	0.4239654239		0.4488328316		0.2674045054		)
(	0.4483605543		0.4244654902		0.2673459532		)
(	0.4222527128		0.4228320053		0.2752769261		)
(	0.4748149501		0.4266707389		0.2623268363		)
(	0.4734483086		0.4013040117		0.2718463027		)
(	0.4219938212		0.3982523694		0.2853783428		)
(	0.4503684525		0.4750424284		0.2562504788		)
(	0.4752746997		0.4754352254		0.2524414587		)
(	0.474825314		0.4505590009		0.256234082		)
(	0.4469036329		0.3768823017		0.2889957153		)
(	0.4218739383		0.375715947		0.2976394489		)
(	0.4733142319		0.3791658644		0.2827743536		)
(	0.4734240048		0.3575388993		0.2962880679		)
(	0.4733528724		0.3380506117		0.3114202391		)
(	0.3266709417		0.3278331513		0.4469376428		)
(	0.318618075		0.3471215838		0.4210773343		)
(	0.3456392768		0.3201727711		0.4204076958		)
(	0.314966314		0.3676634313		0.3963198784		)
(	0.3668919869		0.3157277834		0.3959519004		)
(	0.3149663139		0.3963198777		0.3676634319		)
(	0.336728925		0.3661296219		0.3661296227		)
(	0.3645514922		0.3661279465		0.3380371184		)
(	0.3645514922		0.3380371174		0.3661279476		)
(	0.3668919867		0.3959518993		0.3157277841		)
(	0.3945276979		0.3675912205		0.3160339472		)
(	0.3945276981		0.3160339461		0.3675912218		)
(	0.3186180749		0.4210773337		0.3471215843		)
(	0.3266709415		0.446937642		0.3278331517		)
(	0.3456392766		0.4204076948		0.3201727718		)
(	0.419537548		0.3198371204		0.346484103		)
(	0.4195375479		0.346484102		0.3198371213		)
(	0.4465621876		0.3273089457		0.3273089464		)
(	0.3895804863		0.6996974024		0.397880078		)
(	0.2958467609		0.6020061796		0.3979402415		)
(	0.3979378735		0.6020621256		0.2958759082		)
(	0.4486701581		0.7396103141		0.4504808654		)
(	0.3944723128		0.7205213283		0.4477099338		)
(	0.4430504965		0.7212492741		0.3984839285		)
(	0.3500903111		0.6931662513		0.4479050432		)
(	0.4412703091		0.694875989		0.3548305393		)
(	0.2772631571		0.6008691892		0.4479067617		)
(	0.3027578623		0.6442945832		0.4473254108		)
(	0.2600696993		0.5496496237		0.4503173506		)
(	0.2773465152		0.5525738691		0.3991961608		)
(	0.3028145415		0.5528010317		0.3556741672		)
(	0.3892345197		0.6573055387		0.3403567231		)
(	0.4471678254		0.6443392063		0.302832673		)
(	0.3365145454		0.6568223415		0.3942679834		)
(	0.3394090495		0.6061782252		0.3405110313		)
(	0.355014153		0.5525547734		0.3032333871		)
(	0.4498499266		0.5501500733		0.2602711109		)
(	0.4475518546		0.600888764		0.2773553294		)
(	0.3988462082		0.5522116783		0.277420012		)
(	0.4753782973		0.7475632122		0.4753783078		)
(	0.4496976676		0.7436195234		0.4751162069		)
(	0.4740812512		0.7436936371		0.4505871503		)
(	0.4254458522		0.7373222018		0.4751031812		)
(	0.4739232654		0.7375881287		0.4267068557		)
(	0.3988038158		0.72708508		0.4736998339		)
(	0.4210090518		0.7316132323		0.4488556873		)
(	0.4173621051		0.7228095534		0.4223670093		)
(	0.4455147102		0.7318602922		0.4240252797		)
(	0.3913857214		0.7113560529		0.4223368982		)
(	0.4156113528		0.7118961394		0.3976350532		)
(	0.4713214113		0.7276457412		0.4007278737		)
(	0.3763666873		0.7156982158		0.4737495969		)
(	0.3547094794		0.7017518527		0.4737920897		)
(	0.3715318946		0.7079683343		0.4476061281		)
(	0.3351101411		0.6860876704		0.4738712156		)
(	0.3682816417		0.6978129691		0.4224093863		)
(	0.4712410114		0.7166617926		0.3786303655		)
(	0.4418567606		0.7091549036		0.376009718		)
(	0.4704160951		0.7028597383		0.3569170899		)
(	0.4141466645		0.6988847601		0.3752039384		)
(	0.4703475619		0.6876300335		0.337470915		)
(	0.296158953		0.6422901443		0.4734982572		)
(	0.3113774507		0.6619147369		0.4734453046		)
(	0.2827864228		0.6209451771		0.4737221387		)
(	0.2889372355		0.6232084126		0.4473483476		)
(	0.2718249233		0.5987351636		0.4737797435		)
(	0.2852935007		0.6019621994		0.4225091678		)
(	0.2975476391		0.624217989		0.4220068413		)
(	0.2623211497		0.5733480384		0.4749235287		)
(	0.2673011958		0.5757035554		0.4488117372		)
(	0.2673233791		0.551397915		0.4243703468		)
(	0.2751784925		0.577451974		0.4228217552		)
(	0.2623220212		0.5250579933		0.4266428235		)
(	0.2718482256		0.5265557366		0.4013006551		)
(	0.2854068398		0.5777724401		0.3980136129		)
(	0.256216244		0.5494587053		0.4750336874		)
(	0.2524317587		0.5246131131		0.4754203221		)
(	0.2562178305		0.5249495543		0.4505250207		)
(	0.2889830842		0.5529619268		0.3768460495		)
(	0.2976001354		0.5780703983		0.3757449891		)
(	0.2828039249		0.5265246471		0.3790772642		)
(	0.29620568		0.5267169461		0.3576831706		)
(	0.3114057809		0.5266282349		0.3380643411		)
(	0.4435739148		0.6714767168		0.3270496242		)
(	0.4733558026		0.6619436248		0.3114148756		)
(	0.4145032599		0.6776566262		0.3462845791		)
(	0.4170772332		0.6521799159		0.3198192909		)
(	0.388260504		0.6803527809		0.367760976		)
(	0.3924825366		0.6310288347		0.3162299275		)
(	0.4218808217		0.6242698761		0.2976280853		)
(	0.3617605015		0.6799993962		0.3951665205		)
(	0.3609143777		0.6586787838		0.365924524		)
(	0.3361618089		0.6329610437		0.3659164142		)
(	0.362916111		0.6331050781		0.338782614		)
(	0.3143457248		0.6306930556		0.3953490787		)
(	0.3155327495		0.6050863853		0.3679822545		)
(	0.3670570585		0.6051916424		0.3162586256		)
(	0.3419105716		0.6765482068		0.4203855333		)
(	0.3248002355		0.6703320195		0.4471601887		)
(	0.3178623707		0.6515802527		0.4203174361		)
(	0.345814942		0.580091978		0.3202439349		)
(	0.375357131		0.5779541921		0.2977939191		)
(	0.3193363775		0.5801206247		0.3468943469		)
(	0.3269473568		0.5532438095		0.3276112549		)
(	0.3375635959		0.5263668334		0.3118000937		)
(	0.4753759694		0.5246240305		0.2524372519		)
(	0.4746987965		0.5497025084		0.2563003698		)
(	0.4502847377		0.5252037736		0.2562928756		)
(	0.4746873951		0.5736004986		0.2624242465		)
(	0.4262077973		0.5253034515		0.2624827456		)
(	0.473615896		0.598854861		0.2718956478		)
(	0.448403034		0.5759573938		0.2674742435		)
(	0.4224600603		0.5772865627		0.2752460346		)
(	0.4238589693		0.5514056502		0.2674919301		)
(	0.4221789104		0.6019137376		0.2853899627		)
(	0.3978127316		0.5775766915		0.2854315514		)
(	0.4010265855		0.5262546794		0.2719321263		)
(	0.4735405731		0.6209683495		0.2828213704		)
(	0.4734005744		0.6424856286		0.2963082814		)
(	0.4470904949		0.6232410318		0.2890207775		)
(	0.3788521746		0.5262636885		0.2828976669		)
(	0.3762517514		0.5525976673		0.2892398131		)
(	0.3572238578		0.5264323304		0.2964900368		)
(	0.4385842255		0.4389216139		0.6224644169		)
(	0.3775255128		0.4387627569		0.561237244		)
(	0.4385842259		0.3775355832		0.5610783866		)
(	0.4682250014		0.4397290658		0.6336329449		)
(	0.4680834777		0.4135081145		0.6183236635		)
(	0.4701056363		0.4701222078		0.643922356		)
(	0.4391943935		0.4687115901		0.6335054816		)
(	0.4129728319		0.4678039428		0.6178545116		)