/*--------------------------------*- C++ -*----------------------------------*\
| =========                 |                                                 |
| \\      /  F ield         | OpenFOAM: The Open Source CFD Toolbox           |
|  \\    /   O peration     | Version:  v1806                                 |
|   \\  /    A nd           | Web:      www.OpenFOAM.com                      |
|    \\/     M anipulation  |                                                 |
\*---------------------------------------------------------------------------*/
FoamFile
{
    version     2.0;
    format      ascii;
    class       labelListList;
    location    "constant";
    object      connectivity;
}
// * * * * * * * * * * * * * * * * * * * * * * * * * * * * * * * * * * * * * //

36864
(
4	(	2582		2092		2585		2584	)
4	(	2582		2051		2583		2587	)
4	(	2583		2094		2584		2586	)
4	(	2585		2093		2587		2586	)
4	(	2583		2586		2585		2587	)
4	(	2583		2585		2582		2587	)
4	(	2585		2586		2583		2584	)
4	(	2582		2585		2583		2584	)
4	(	2588		2092		2590		2589	)
4	(	78		2588		868		825	)
4	(	868		816		2589		891	)
4	(	807		2590		825		891	)
4	(	891		868		2590		825	)
4	(	2590		868		2588		825	)
4	(	891		2590		868		2589	)
4	(	2590		2588		868		2589	)
4	(	867		816		892		2592	)
4	(	867		805		2591		894	)
4	(	2591		2093		2592		2593	)
4	(	892		822		894		2593	)
4	(	2591		2593		892		894	)
4	(	2591		892		867		894	)
4	(	892		2593		2591		2592	)
4	(	867		892		2591		2592	)
4	(	2594		2094		2596		2595	)
4	(	804		2594		829		895	)
4	(	807		829		2595		893	)
4	(	2596		822		895		893	)
4	(	893		829		2596		895	)
4	(	2596		829		2594		895	)
4	(	893		2596		829		2595	)
4	(	2596		2594		829		2595	)
4	(	816		892		891		2597	)
4	(	892		822		2596		893	)
4	(	2596		2094		2597		2595	)
4	(	807		891		893		2595	)
4	(	2595		2596		891		893	)
4	(	891		2596		892		893	)
4	(	2595		891		2596		2597	)
4	(	891		892		2596		2597	)
4	(	2597		816		891		2589	)
4	(	2597		2094		2584		2595	)
4	(	2584		2092		2589		2590	)
4	(	807		891		2595		2590	)
4	(	2590		2584		891		2595	)
4	(	2584		891		2597		2595	)
4	(	2590		891		2584		2589	)
4	(	2597		891		2584		2589	)
4	(	2596		2094		2586		2597	)
4	(	2596		822		892		2593	)
4	(	816		892		2597		2592	)
4	(	2586		2093		2593		2592	)
4	(	892		2592		2586		2593	)
4	(	892		2586		2596		2593	)
4	(	2592		2586		892		2597	)
4	(	2586		2596		892		2597	)
4	(	2584		2092		2585		2589	)
4	(	2584		2094		2597		2586	)
4	(	2597		816		2589		2592	)
4	(	2585		2093		2586		2592	)
4	(	2597		2592		2585		2586	)
4	(	2597		2585		2584		2586	)
4	(	2585		2592		2597		2589	)
4	(	2584		2585		2597		2589	)
4	(	2598		2095		2601		2600	)
4	(	2598		2051		2599		2603	)
4	(	2599		2098		2600		2602	)
4	(	2601		2097		2603		2602	)
4	(	2599		2602		2601		2603	)
4	(	2599		2601		2598		2603	)
4	(	2601		2602		2599		2600	)
4	(	2598		2601		2599		2600	)
4	(	2604		2095		2607		2606	)
4	(	2604		243		2605		2609	)
4	(	2605		2096		2606		2608	)
4	(	2607		2100		2609		2608	)
4	(	2605		2608		2607		2609	)
4	(	2605		2607		2604		2609	)
4	(	2607		2608		2605		2606	)
4	(	2604		2607		2605		2606	)
4	(	2610		2096		2613		2612	)
4	(	2610		2052		2611		2615	)
4	(	2611		2097		2612		2614	)
4	(	2613		2099		2615		2614	)
4	(	2611		2614		2613		2615	)
4	(	2611		2613		2610		2615	)
4	(	2613		2614		2611		2612	)
4	(	2610		2613		2611		2612	)
4	(	2616		2098		2619		2618	)
4	(	2616		2053		2617		2621	)
4	(	2617		2100		2618		2620	)
4	(	2619		2099		2621		2620	)
4	(	2617		2620		2619		2621	)
4	(	2617		2619		2616		2621	)
4	(	2619		2620		2617		2618	)
4	(	2616		2619		2617		2618	)
4	(	2613		2096		2608		2622	)
4	(	2613		2099		2619		2620	)
4	(	2619		2098		2622		2618	)
4	(	2608		2100		2620		2618	)
4	(	2619		2618		2608		2620	)
4	(	2619		2608		2613		2620	)
4	(	2608		2618		2619		2622	)
4	(	2613		2608		2619		2622	)
4	(	2622		2096		2608		2606	)
4	(	2622		2098		2600		2618	)
4	(	2600		2095		2606		2607	)
4	(	2608		2100		2618		2607	)
4	(	2600		2607		2608		2618	)
4	(	2600		2608		2622		2618	)
4	(	2608		2607		2600		2606	)
4	(	2622		2608		2600		2606	)
4	(	2619		2098		2602		2622	)
4	(	2619		2099		2613		2614	)
4	(	2613		2096		2622		2612	)
4	(	2602		2097		2614		2612	)
4	(	2613		2612		2602		2614	)
4	(	2613		2602		2619		2614	)
4	(	2602		2612		2613		2622	)
4	(	2619		2602		2613		2622	)
4	(	2600		2095		2601		2606	)
4	(	2600		2098		2622		2602	)
4	(	2622		2096		2606		2612	)
4	(	2601		2097		2602		2612	)
4	(	2622		2612		2601		2602	)
4	(	2622		2601		2600		2602	)
4	(	2601		2612		2622		2606	)
4	(	2600		2601		2622		2606	)
4	(	2623		2101		2626		2625	)
4	(	2623		2052		2624		2628	)
4	(	2624		2103		2625		2627	)
4	(	2626		2102		2628		2627	)
4	(	2624		2627		2626		2628	)
4	(	2624		2626		2623		2628	)
4	(	2626		2627		2624		2625	)
4	(	2623		2626		2624		2625	)
4	(	2629		2101		2631		2630	)
4	(	18		2629		843		890	)
4	(	811		843		2630		908	)
4	(	2631		821		890		908	)
4	(	908		843		2631		890	)
4	(	2631		843		2629		890	)
4	(	908		2631		843		2630	)
4	(	2631		2629		843		2630	)
4	(	811		839		906		2633	)
4	(	804		839		2632		902	)
4	(	2632		2102		2633		2634	)
4	(	906		824		902		2634	)
4	(	2634		2632		906		902	)
4	(	906		2632		839		902	)
4	(	2634		906		2632		2633	)
4	(	906		839		2632		2633	)
4	(	2635		2103		2637		2636	)
4	(	2635		806		887		901	)
4	(	887		821		2636		907	)
4	(	2637		824		901		907	)
4	(	887		907		2637		901	)
4	(	887		2637		2635		901	)
4	(	2637		907		887		2636	)
4	(	2635		2637		887		2636	)
4	(	811		906		908		2638	)
4	(	906		824		2637		907	)
4	(	2637		2103		2638		2636	)
4	(	908		821		907		2636	)
4	(	2636		2637		908		907	)
4	(	908		2637		906		907	)
4	(	2636		908		2637		2638	)
4	(	908		906		2637		2638	)
4	(	811		2638		908		2630	)
4	(	2638		2103		2625		2636	)
4	(	2625		2101		2630		2631	)
4	(	908		821		2636		2631	)
4	(	2625		2631		908		2636	)
4	(	2625		908		2638		2636	)
4	(	2631		908		2625		2630	)
4	(	908		2638		2625		2630	)
4	(	2637		2103		2627		2638	)
4	(	2637		824		906		2634	)
4	(	811		906		2638		2633	)
4	(	2627		2102		2634		2633	)
4	(	2633		906		2627		2634	)
4	(	906		2627		2637		2634	)
4	(	2633		2627		906		2638	)
4	(	2637		2627		906		2638	)
4	(	2625		2101		2626		2630	)
4	(	2625		2103		2638		2627	)
4	(	2638		811		2630		2633	)
4	(	2626		2102		2627		2633	)
4	(	2638		2633		2626		2627	)
4	(	2638		2626		2625		2627	)
4	(	2626		2633		2638		2630	)
4	(	2625		2626		2638		2630	)
4	(	863		815		2639		903	)
4	(	863		805		896		2641	)
4	(	896		823		903		2640	)
4	(	2639		2105		2641		2640	)
4	(	896		2640		2639		2641	)
4	(	896		2639		863		2641	)
4	(	2639		2640		896		903	)
4	(	863		2639		896		903	)
4	(	862		815		904		2643	)
4	(	862		123		2642		870	)
4	(	2642		2104		2643		2644	)
4	(	904		818		870		2644	)
4	(	2642		2644		904		870	)
4	(	2642		904		862		870	)
4	(	904		2644		2642		2643	)
4	(	862		904		2642		2643	)
4	(	2645		2104		2648		2647	)
4	(	2645		2053		2646		2650	)
4	(	2646		2105		2647		2649	)
4	(	2648		2106		2650		2649	)
4	(	2646		2649		2648		2650	)
4	(	2646		2648		2645		2650	)
4	(	2648		2649		2646		2647	)
4	(	2645		2648		2646		2647	)
4	(	900		823		2651		905	)
4	(	900		806		875		2653	)
4	(	875		818		905		2652	)
4	(	2651		2106		2653		2652	)
4	(	875		2652		2651		2653	)
4	(	875		2651		900		2653	)
4	(	2651		2652		875		905	)
4	(	900		2651		875		905	)
4	(	2648		2104		2644		2654	)
4	(	2648		2106		2651		2652	)
4	(	2651		823		2654		905	)
4	(	2644		818		2652		905	)
4	(	2651		905		2644		2652	)
4	(	2651		2644		2648		2652	)
4	(	2644		905		2651		2654	)
4	(	2648		2644		2651		2654	)
4	(	2654		2104		2644		2643	)
4	(	2654		823		903		905	)
4	(	903		815		2643		904	)
4	(	2644		818		905		904	)
4	(	903		904		2644		905	)
4	(	903		2644		2654		905	)
4	(	2644		904		903		2643	)
4	(	2654		2644		903		2643	)
4	(	2651		823		2640		2654	)
4	(	2651		2106		2648		2649	)
4	(	2648		2104		2654		2647	)
4	(	2640		2105		2649		2647	)
4	(	2648		2647		2640		2649	)
4	(	2648		2640		2651		2649	)
4	(	2640		2647		2648		2654	)
4	(	2651		2640		2648		2654	)
4	(	903		815		2639		2643	)
4	(	903		823		2654		2640	)
4	(	2654		2104		2643		2647	)
4	(	2639		2105		2640		2647	)
4	(	2654		2647		2639		2640	)
4	(	2654		2639		903		2640	)
4	(	2639		2647		2654		2643	)
4	(	903		2639		2654		2643	)
4	(	2624		2103		2656		2655	)
4	(	2624		2052		2615		2658	)
4	(	2615		2099		2655		2657	)
4	(	2656		2107		2658		2657	)
4	(	2615		2657		2656		2658	)
4	(	2615		2656		2624		2658	)
4	(	2656		2657		2615		2655	)
4	(	2624		2656		2615		2655	)
4	(	2635		2103		2660		2659	)
4	(	2635		806		900		2653	)
4	(	900		823		2659		2651	)
4	(	2660		2106		2653		2651	)
4	(	900		2651		2660		2653	)
4	(	900		2660		2635		2653	)
4	(	2660		2651		900		2659	)
4	(	2635		2660		900		2659	)
4	(	896		823		2640		2662	)
4	(	896		805		2661		2641	)
4	(	2661		2107		2662		2663	)
4	(	2640		2105		2641		2663	)
4	(	2661		2663		2640		2641	)
4	(	2661		2640		896		2641	)
4	(	2640		2663		2661		2662	)
4	(	896		2640		2661		2662	)
4	(	2621		2099		2665		2664	)
4	(	2621		2053		2650		2646	)
4	(	2650		2106		2664		2649	)
4	(	2665		2105		2646		2649	)
4	(	2650		2649		2665		2646	)
4	(	2650		2665		2621		2646	)
4	(	2665		2649		2650		2664	)
4	(	2621		2665		2650		2664	)
4	(	2640		823		2651		2666	)
4	(	2640		2105		2665		2649	)
4	(	2665		2099		2666		2664	)
4	(	2651		2106		2649		2664	)
4	(	2665		2664		2651		2649	)
4	(	2665		2651		2640		2649	)
4	(	2651		2664		2665		2666	)
4	(	2640		2651		2665		2666	)
4	(	2666		823		2651		2659	)
4	(	2666		2099		2655		2664	)
4	(	2655		2103		2659		2660	)
4	(	2651		2106		2664		2660	)
4	(	2655		2660		2651		2664	)
4	(	2655		2651		2666		2664	)
4	(	2651		2660		2655		2659	)
4	(	2666		2651		2655		2659	)
4	(	2665		2099		2657		2666	)
4	(	2665		2105		2640		2663	)
4	(	2640		823		2666		2662	)
4	(	2657		2107		2663		2662	)
4	(	2640		2662		2657		2663	)
4	(	2640		2657		2665		2663	)
4	(	2657		2662		2640		2666	)
4	(	2665		2657		2640		2666	)
4	(	2655		2103		2656		2659	)
4	(	2655		2099		2666		2657	)
4	(	2666		823		2659		2662	)
4	(	2656		2107		2657		2662	)
4	(	2666		2662		2656		2657	)
4	(	2666		2656		2655		2657	)
4	(	2656		2662		2666		2659	)
4	(	2655		2656		2666		2659	)
4	(	2658		2107		2667		2657	)
4	(	2658		2052		2615		2611	)
4	(	2615		2099		2657		2614	)
4	(	2667		2097		2611		2614	)
4	(	2615		2614		2667		2611	)
4	(	2615		2667		2658		2611	)
4	(	2667		2614		2615		2657	)
4	(	2658		2667		2615		2657	)
4	(	2661		2107		2663		2668	)
4	(	2661		805		2591		2641	)
4	(	2591		2093		2668		2669	)
4	(	2663		2105		2641		2669	)
4	(	2591		2669		2663		2641	)
4	(	2591		2663		2661		2641	)
4	(	2663		2669		2591		2668	)
4	(	2661		2663		2591		2668	)
4	(	2587		2093		2671		2670	)
4	(	2587		2051		2603		2599	)
4	(	2603		2097		2670		2602	)
4	(	2671		2098		2599		2602	)
4	(	2603		2602		2671		2599	)
4	(	2603		2671		2587		2599	)
4	(	2671		2602		2603		2670	)
4	(	2587		2671		2603		2670	)
4	(	2621		2099		2619		2665	)
4	(	2621		2053		2646		2616	)
4	(	2646		2105		2665		2672	)
4	(	2619		2098		2616		2672	)
4	(	2646		2672		2619		2616	)
4	(	2646		2619		2621		2616	)
4	(	2619		2672		2646		2665	)
4	(	2621		2619		2646		2665	)
4	(	2671		2093		2669		2673	)
4	(	2671		2098		2619		2672	)
4	(	2619		2099		2673		2665	)
4	(	2669		2105		2672		2665	)
4	(	2619		2665		2669		2672	)
4	(	2619		2669		2671		2672	)
4	(	2669		2665		2619		2673	)
4	(	2671		2669		2619		2673	)
4	(	2673		2093		2669		2668	)
4	(	2673		2099		2657		2665	)
4	(	2657		2107		2668		2663	)
4	(	2669		2105		2665		2663	)
4	(	2657		2663		2669		2665	)
4	(	2657		2669		2673		2665	)
4	(	2669		2663		2657		2668	)
4	(	2673		2669		2657		2668	)
4	(	2619		2099		2614		2673	)
4	(	2619		2098		2671		2602	)
4	(	2671		2093		2673		2670	)
4	(	2614		2097		2602		2670	)
4	(	2671		2670		2614		2602	)
4	(	2671		2614		2619		2602	)
4	(	2614		2670		2671		2673	)
4	(	2619		2614		2671		2673	)
4	(	2657		2107		2667		2668	)
4	(	2657		2099		2673		2614	)
4	(	2673		2093		2668		2670	)
4	(	2667		2097		2614		2670	)
4	(	2673		2670		2667		2614	)
4	(	2673		2667		2657		2614	)
4	(	2667		2670		2673		2668	)
4	(	2657		2667		2673		2668	)
4	(	896		823		2662		897	)
4	(	896		805		894		2661	)
4	(	894		822		897		2674	)
4	(	2662		2107		2661		2674	)
4	(	894		2674		2662		2661	)
4	(	894		2662		896		2661	)
4	(	2662		2674		894		897	)
4	(	896		2662		894		897	)
4	(	900		823		898		2659	)
4	(	900		806		2635		901	)
4	(	2635		2103		2659		2637	)
4	(	898		824		901		2637	)
4	(	2635		2637		898		901	)
4	(	2635		898		900		901	)
4	(	898		2637		2635		2659	)
4	(	900		898		2635		2659	)
4	(	2624		2103		2627		2656	)
4	(	2624		2052		2658		2628	)
4	(	2658		2107		2656		2675	)
4	(	2627		2102		2628		2675	)
4	(	2658		2675		2627		2628	)
4	(	2658		2627		2624		2628	)
4	(	2627		2675		2658		2656	)
4	(	2624		2627		2658		2656	)
4	(	822		895		2676		899	)
4	(	804		895		902		2632	)
4	(	902		824		899		2634	)
4	(	2676		2102		2632		2634	)
4	(	2634		902		2676		2632	)
4	(	2676		902		895		2632	)
4	(	2634		2676		902		899	)
4	(	2676		895		902		899	)
4	(	2627		2103		2637		2677	)
4	(	2627		2102		2676		2634	)
4	(	2676		822		2677		899	)
4	(	2637		824		2634		899	)
4	(	2676		899		2637		2634	)
4	(	2676		2637		2627		2634	)
4	(	2637		899		2676		2677	)
4	(	2627		2637		2676		2677	)
4	(	2677		2103		2637		2659	)
4	(	822		2677		897		899	)
4	(	897		823		2659		898	)
4	(	2637		824		899		898	)
4	(	897		898		2637		899	)
4	(	897		2637		2677		899	)
4	(	2637		898		897		2659	)
4	(	2677		2637		897		2659	)
4	(	2676		822		2674		2677	)
4	(	2676		2102		2627		2675	)
4	(	2627		2103		2677		2656	)
4	(	2674		2107		2675		2656	)
4	(	2627		2656		2674		2675	)
4	(	2627		2674		2676		2675	)
4	(	2674		2656		2627		2677	)
4	(	2676		2674		2627		2677	)
4	(	897		823		2662		2659	)
4	(	897		822		2677		2674	)
4	(	2677		2103		2659		2656	)
4	(	2662		2107		2674		2656	)
4	(	2677		2656		2662		2674	)
4	(	2677		2662		897		2674	)
4	(	2662		2656		2677		2659	)
4	(	897		2662		2677		2659	)
4	(	2587		2093		2670		2586	)
4	(	2587		2051		2583		2603	)
4	(	2583		2094		2586		2678	)
4	(	2670		2097		2603		2678	)
4	(	2583		2678		2670		2603	)
4	(	2583		2670		2587		2603	)
4	(	2670		2678		2583		2586	)
4	(	2587		2670		2583		2586	)
4	(	2591		2093		2593		2668	)
4	(	2591		805		2661		894	)
4	(	2661		2107		2668		2674	)
4	(	2593		822		894		2674	)
4	(	2661		2674		2593		894	)
4	(	2661		2593		2591		894	)
4	(	2593		2674		2661		2668	)
4	(	2591		2593		2661		2668	)
4	(	2658		2107		2675		2667	)
4	(	2658		2052		2611		2628	)
4	(	2611		2097		2667		2679	)
4	(	2675		2102		2628		2679	)
4	(	2611		2679		2675		2628	)
4	(	2611		2675		2658		2628	)
4	(	2675		2679		2611		2667	)
4	(	2658		2675		2611		2667	)
4	(	2594		2094		2680		2596	)
4	(	804		2594		895		2632	)
4	(	895		822		2596		2676	)
4	(	2680		2102		2632		2676	)
4	(	895		2676		2680		2632	)
4	(	2680		895		2594		2632	)
4	(	2680		2676		895		2596	)
4	(	2680		2594		895		2596	)
4	(	2675		2107		2674		2681	)
4	(	2675		2102		2680		2676	)
4	(	2680		2094		2681		2596	)
4	(	2674		822		2676		2596	)
4	(	2680		2596		2674		2676	)
4	(	2680		2674		2675		2676	)
4	(	2674		2596		2680		2681	)
4	(	2675		2674		2680		2681	)
4	(	2681		2107		2674		2668	)
4	(	2681		2094		2586		2596	)
4	(	2586		2093		2668		2593	)
4	(	2674		822		2596		2593	)
4	(	2586		2593		2674		2596	)
4	(	2586		2674		2681		2596	)
4	(	2674		2593		2586		2668	)
4	(	2681		2674		2586		2668	)
4	(	2680		2094		2678		2681	)
4	(	2680		2102		2675		2679	)
4	(	2675		2107		2681		2667	)
4	(	2678		2097		2679		2667	)
4	(	2675		2667		2678		2679	)
4	(	2675		2678		2680		2679	)
4	(	2678		2667		2675		2681	)
4	(	2680		2678		2675		2681	)
4	(	2586		2093		2670		2668	)
4	(	2586		2094		2681		2678	)
4	(	2681		2107		2668		2667	)
4	(	2670		2097		2678		2667	)
4	(	2681		2667		2670		2678	)
4	(	2681		2670		2586		2678	)
4	(	2670		2667		2681		2668	)
4	(	2586		2670		2681		2668	)
4	(	2682		2108		2685		2684	)
4	(	2682		2054		2683		2687	)
4	(	2683		2110		2684		2686	)
4	(	2685		2109		2687		2686	)
4	(	2683		2686		2685		2687	)
4	(	2683		2685		2682		2687	)
4	(	2685		2686		2683		2684	)
4	(	2682		2685		2683		2684	)
4	(	2688		2108		2690		2689	)
4	(	63		2688		1080		1078	)
4	(	1080		1028		2689		1079	)
4	(	1026		2690		1078		1079	)
4	(	1079		1080		2690		1078	)
4	(	2690		1080		2688		1078	)
4	(	1079		2690		1080		2689	)
4	(	2690		2688		1080		2689	)
4	(	1085		1028		1082		2692	)
4	(	1085		1016		2691		1084	)
4	(	2691		2109		2692		2693	)
4	(	1082		1027		1084		2693	)
4	(	2691		2693		1082		1084	)
4	(	2691		1082		1085		1084	)
4	(	1082		2693		2691		2692	)
4	(	1085		1082		2691		2692	)
4	(	2694		2110		2696		2695	)
4	(	1015		2694		1077		1083	)
4	(	1026		1077		2695		1081	)
4	(	2696		1027		1083		1081	)
4	(	1081		1077		2696		1083	)
4	(	2696		1077		2694		1083	)
4	(	1081		2696		1077		2695	)
4	(	2696		2694		1077		2695	)
4	(	1028		1082		1079		2697	)
4	(	1082		1027		2696		1081	)
4	(	2696		2110		2697		2695	)
4	(	1026		1079		1081		2695	)
4	(	2695		2696		1079		1081	)
4	(	1079		2696		1082		1081	)
4	(	2695		1079		2696		2697	)
4	(	1079		1082		2696		2697	)
4	(	2697		1028		1079		2689	)
4	(	2697		2110		2684		2695	)
4	(	2684		2108		2689		2690	)
4	(	1026		1079		2695		2690	)
4	(	2690		2684		1079		2695	)
4	(	2684		1079		2697		2695	)
4	(	2690		1079		2684		2689	)
4	(	2697		1079		2684		2689	)
4	(	2696		2110		2686		2697	)
4	(	2696		1027		1082		2693	)
4	(	1028		1082		2697		2692	)
4	(	2686		2109		2693		2692	)
4	(	1082		2692		2686		2693	)
4	(	1082		2686		2696		2693	)
4	(	2692		2686		1082		2697	)
4	(	2686		2696		1082		2697	)
4	(	2684		2108		2685		2689	)
4	(	2684		2110		2697		2686	)
4	(	2697		1028		2689		2692	)
4	(	2685		2109		2686		2692	)
4	(	2697		2692		2685		2686	)
4	(	2697		2685		2684		2686	)
4	(	2685		2692		2697		2689	)
4	(	2684		2685		2697		2689	)
4	(	2698		2111		2701		2700	)
4	(	2698		2054		2699		2703	)
4	(	2699		2114		2700		2702	)
4	(	2701		2113		2703		2702	)
4	(	2699		2702		2701		2703	)
4	(	2699		2701		2698		2703	)
4	(	2701		2702		2699		2700	)
4	(	2698		2701		2699		2700	)
4	(	2704		2111		2707		2706	)
4	(	2704		213		2705		2709	)
4	(	2705		2112		2706		2708	)
4	(	2707		2116		2709		2708	)
4	(	2705		2708		2707		2709	)
4	(	2705		2707		2704		2709	)
4	(	2707		2708		2705		2706	)
4	(	2704		2707		2705		2706	)
4	(	2710		2112		2713		2712	)
4	(	2710		2055		2711		2715	)
4	(	2711		2113		2712		2714	)
4	(	2713		2115		2715		2714	)
4	(	2711		2714		2713		2715	)
4	(	2711		2713		2710		2715	)
4	(	2713		2714		2711		2712	)
4	(	2710		2713		2711		2712	)
4	(	2716		2114		2719		2718	)
4	(	2716		2056		2717		2721	)
4	(	2717		2116		2718		2720	)
4	(	2719		2115		2721		2720	)
4	(	2717		2720		2719		2721	)
4	(	2717		2719		2716		2721	)
4	(	2719		2720		2717		2718	)
4	(	2716		2719		2717		2718	)
4	(	2713		2112		2708		2722	)
4	(	2713		2115		2719		2720	)
4	(	2719		2114		2722		2718	)
4	(	2708		2116		2720		2718	)
4	(	2719		2718		2708		2720	)
4	(	2719		2708		2713		2720	)
4	(	2708		2718		2719		2722	)
4	(	2713		2708		2719		2722	)
4	(	2722		2112		2708		2706	)
4	(	2722		2114		2700		2718	)
4	(	2700		2111		2706		2707	)
4	(	2708		2116		2718		2707	)
4	(	2700		2707		2708		2718	)
4	(	2700		2708		2722		2718	)
4	(	2708		2707		2700		2706	)
4	(	2722		2708		2700		2706	)
4	(	2719		2114		2702		2722	)
4	(	2719		2115		2713		2714	)
4	(	2713		2112		2722		2712	)
4	(	2702		2113		2714		2712	)
4	(	2713		2712		2702		2714	)
4	(	2713		2702		2719		2714	)
4	(	2702		2712		2713		2722	)
4	(	2719		2702		2713		2722	)
4	(	2700		2111		2701		2706	)
4	(	2700		2114		2722		2702	)
4	(	2722		2112		2706		2712	)
4	(	2701		2113		2702		2712	)
4	(	2722		2712		2701		2702	)
4	(	2722		2701		2700		2702	)
4	(	2701		2712		2722		2706	)
4	(	2700		2701		2722		2706	)
4	(	2723		2117		2726		2725	)
4	(	2723		2055		2724		2728	)
4	(	2724		2119		2725		2727	)
4	(	2726		2118		2728		2727	)
4	(	2724		2727		2726		2728	)
4	(	2724		2726		2723		2728	)
4	(	2726		2727		2724		2725	)
4	(	2723		2726		2724		2725	)
4	(	2729		2117		2731		2730	)
4	(	108		2729		1072		1036	)
4	(	1025		1072		2730		1094	)
4	(	2731		1018		1036		1094	)
4	(	1094		1072		2731		1036	)
4	(	2731		1072		2729		1036	)
4	(	1094		2731		1072		2730	)
4	(	2731		2729		1072		2730	)
4	(	1025		1073		1093		2733	)
4	(	1015		1073		2732		1086	)
4	(	2732		2118		2733		2734	)
4	(	1093		1029		1086		2734	)
4	(	2734		2732		1093		1086	)
4	(	1093		2732		1073		1086	)
4	(	2734		1093		2732		2733	)
4	(	1093		1073		2732		2733	)
4	(	2735		2119		2737		2736	)
4	(	2735		1014		1041		1090	)
4	(	1041		1018		2736		1095	)
4	(	2737		1029		1090		1095	)
4	(	1041		1095		2737		1090	)
4	(	1041		2737		2735		1090	)
4	(	2737		1095		1041		2736	)
4	(	2735		2737		1041		2736	)
4	(	1025		1093		1094		2738	)
4	(	1093		1029		2737		1095	)
4	(	2737		2119		2738		2736	)
4	(	1094		1018		1095		2736	)
4	(	2736		2737		1094		1095	)
4	(	1094		2737		1093		1095	)
4	(	2736		1094		2737		2738	)
4	(	1094		1093		2737		2738	)
4	(	1025		2738		1094		2730	)
4	(	2738		2119		2725		2736	)
4	(	2725		2117		2730		2731	)
4	(	1094		1018		2736		2731	)
4	(	2725		2731		1094		2736	)
4	(	2725		1094		2738		2736	)
4	(	2731		1094		2725		2730	)
4	(	1094		2738		2725		2730	)
4	(	2737		2119		2727		2738	)
4	(	2737		1029		1093		2734	)
4	(	1025		1093		2738		2733	)
4	(	2727		2118		2734		2733	)
4	(	2733		1093		2727		2734	)
4	(	1093		2727		2737		2734	)
4	(	2733		2727		1093		2738	)
4	(	2737		2727		1093		2738	)
4	(	2725		2117		2726		2730	)
4	(	2725		2119		2738		2727	)
4	(	2738		1025		2730		2733	)
4	(	2726		2118		2727		2733	)
4	(	2738		2733		2726		2727	)
4	(	2738		2726		2725		2727	)
4	(	2726		2733		2738		2730	)
4	(	2725		2726		2738		2730	)
4	(	1097		1031		2739		1096	)
4	(	1097		1016		1092		2741	)
4	(	1092		1030		1096		2740	)
4	(	2739		2121		2741		2740	)
4	(	1092		2740		2739		2741	)
4	(	1092		2739		1097		2741	)
4	(	2739		2740		1092		1096	)
4	(	1097		2739		1092		1096	)
4	(	1100		1031		1099		2743	)
4	(	1100		93		2742		1056	)
4	(	2742		2120		2743		2744	)
4	(	1099		1021		1056		2744	)
4	(	2742		2744		1099		1056	)
4	(	2742		1099		1100		1056	)
4	(	1099		2744		2742		2743	)
4	(	1100		1099		2742		2743	)
4	(	2745		2120		2748		2747	)
4	(	2745		2056		2746		2750	)
4	(	2746		2121		2747		2749	)
4	(	2748		2122		2750		2749	)
4	(	2746		2749		2748		2750	)
4	(	2746		2748		2745		2750	)
4	(	2748		2749		2746		2747	)
4	(	2745		2748		2746		2747	)
4	(	1091		1030		2751		1098	)
4	(	1091		1014		1053		2753	)
4	(	1053		1021		1098		2752	)
4	(	2751		2122		2753		2752	)
4	(	1053		2752		2751		2753	)
4	(	1053		2751		1091		2753	)
4	(	2751		2752		1053		1098	)
4	(	1091		2751		1053		1098	)
4	(	2748		2120		2744		2754	)
4	(	2748		2122		2751		2752	)
4	(	2751		1030		2754		1098	)
4	(	2744		1021		2752		1098	)
4	(	2751		1098		2744		2752	)
4	(	2751		2744		2748		2752	)
4	(	2744		1098		2751		2754	)
4	(	2748		2744		2751		2754	)
4	(	2754		2120		2744		2743	)
4	(	2754		1030		1096		1098	)
4	(	1096		1031		2743		1099	)
4	(	2744		1021		1098		1099	)
4	(	1096		1099		2744		1098	)
4	(	1096		2744		2754		1098	)
4	(	2744		1099		1096		2743	)
4	(	2754		2744		1096		2743	)
4	(	2751		1030		2740		2754	)
4	(	2751		2122		2748		2749	)
4	(	2748		2120		2754		2747	)
4	(	2740		2121		2749		2747	)
4	(	2748		2747		2740		2749	)
4	(	2748		2740		2751		2749	)
4	(	2740		2747		2748		2754	)
4	(	2751		2740		2748		2754	)
4	(	1096		1031		2739		2743	)
4	(	1096		1030		2754		2740	)
4	(	2754		2120		2743		2747	)
4	(	2739		2121		2740		2747	)
4	(	2754		2747		2739		2740	)
4	(	2754		2739		1096		2740	)
4	(	2739		2747		2754		2743	)
4	(	1096		2739		2754		2743	)
4	(	2724		2119		2756		2755	)
4	(	2724		2055		2715		2758	)
4	(	2715		2115		2755		2757	)
4	(	2756		2123		2758		2757	)
4	(	2715		2757		2756		2758	)
4	(	2715		2756		2724		2758	)
4	(	2756		2757		2715		2755	)
4	(	2724		2756		2715		2755	)
4	(	2735		2119		2760		2759	)
4	(	2735		1014		1091		2753	)
4	(	1091		1030		2759		2751	)
4	(	2760		2122		2753		2751	)
4	(	1091		2751		2760		2753	)
4	(	1091		2760		2735		2753	)
4	(	2760		2751		1091		2759	)
4	(	2735		2760		1091		2759	)
4	(	1092		1030		2740		2762	)
4	(	1092		1016		2761		2741	)
4	(	2761		2123		2762		2763	)
4	(	2740		2121		2741		2763	)
4	(	2761		2763		2740		2741	)
4	(	2761		2740		1092		2741	)
4	(	2740		2763		2761		2762	)
4	(	1092		2740		2761		2762	)
4	(	2721		2115		2765		2764	)
4	(	2721		2056		2750		2746	)
4	(	2750		2122		2764		2749	)
4	(	2765		2121		2746		2749	)
4	(	2750		2749		2765		2746	)
4	(	2750		2765		2721		2746	)
4	(	2765		2749		2750		2764	)
4	(	2721		2765		2750		2764	)
4	(	2740		1030		2751		2766	)
4	(	2740		2121		2765		2749	)
4	(	2765		2115		2766		2764	)
4	(	2751		2122		2749		2764	)
4	(	2765		2764		2751		2749	)
4	(	2765		2751		2740		2749	)
4	(	2751		2764		2765		2766	)
4	(	2740		2751		2765		2766	)
4	(	2766		1030		2751		2759	)
4	(	2766		2115		2755		2764	)
4	(	2755		2119		2759		2760	)
4	(	2751		2122		2764		2760	)
4	(	2755		2760		2751		2764	)
4	(	2755		2751		2766		2764	)
4	(	2751		2760		2755		2759	)
4	(	2766		2751		2755		2759	)
4	(	2765		2115		2757		2766	)
4	(	2765		2121		2740		2763	)
4	(	2740		1030		2766		2762	)
4	(	2757		2123		2763		2762	)
4	(	2740		2762		2757		2763	)
4	(	2740		2757		2765		2763	)
4	(	2757		2762		2740		2766	)
4	(	2765		2757		2740		2766	)
4	(	2755		2119		2756		2759	)
4	(	2755		2115		2766		2757	)
4	(	2766		1030		2759		2762	)
4	(	2756		2123		2757		2762	)
4	(	2766		2762		2756		2757	)
4	(	2766		2756		2755		2757	)
4	(	2756		2762		2766		2759	)
4	(	2755		2756		2766		2759	)
4	(	2758		2123		2767		2757	)
4	(	2758		2055		2715		2711	)
4	(	2715		2115		2757		2714	)
4	(	2767		2113		2711		2714	)
4	(	2715		2714		2767		2711	)
4	(	2715		2767		2758		2711	)
4	(	2767		2714		2715		2757	)
4	(	2758		2767		2715		2757	)
4	(	2761		2123		2763		2768	)
4	(	2761		1016		2691		2741	)
4	(	2691		2109		2768		2769	)
4	(	2763		2121		2741		2769	)
4	(	2691		2769		2763		2741	)
4	(	2691		2763		2761		2741	)
4	(	2763		2769		2691		2768	)
4	(	2761		2763		2691		2768	)
4	(	2687		2109		2771		2770	)
4	(	2687		2054		2703		2699	)
4	(	2703		2113		2770		2702	)
4	(	2771		2114		2699		2702	)
4	(	2703		2702		2771		2699	)
4	(	2703		2771		2687		2699	)
4	(	2771		2702		2703		2770	)
4	(	2687		2771		2703		2770	)
4	(	2721		2115		2719		2765	)
4	(	2721		2056		2746		2716	)
4	(	2746		2121		2765		2772	)
4	(	2719		2114		2716		2772	)
4	(	2746		2772		2719		2716	)
4	(	2746		2719		2721		2716	)
4	(	2719		2772		2746		2765	)
4	(	2721		2719		2746		2765	)
4	(	2771		2109		2769		2773	)
4	(	2771		2114		2719		2772	)
4	(	2719		2115		2773		2765	)
4	(	2769		2121		2772		2765	)
4	(	2719		2765		2769		2772	)
4	(	2719		2769		2771		2772	)
4	(	2769		2765		2719		2773	)
4	(	2771		2769		2719		2773	)
4	(	2773		2109		2769		2768	)
4	(	2773		2115		2757		2765	)
4	(	2757		2123		2768		2763	)
4	(	2769		2121		2765		2763	)
4	(	2757		2763		2769		2765	)
4	(	2757		2769		2773		2765	)
4	(	2769		2763		2757		2768	)
4	(	2773		2769		2757		2768	)
4	(	2719		2115		2714		2773	)
4	(	2719		2114		2771		2702	)
4	(	2771		2109		2773		2770	)
4	(	2714		2113		2702		2770	)
4	(	2771		2770		2714		2702	)
4	(	2771		2714		2719		2702	)
4	(	2714		2770		2771		2773	)
4	(	2719		2714		2771		2773	)
4	(	2757		2123		2767		2768	)
4	(	2757		2115		2773		2714	)
4	(	2773		2109		2768		2770	)
4	(	2767		2113		2714		2770	)
4	(	2773		2770		2767		2714	)
4	(	2773		2767		2757		2714	)
4	(	2767		2770		2773		2768	)
4	(	2757		2767		2773		2768	)
4	(	1092		1030		2762		1089	)
4	(	1092		1016		1084		2761	)
4	(	1084		1027		1089		2774	)
4	(	2762		2123		2761		2774	)
4	(	1084		2774		2762		2761	)
4	(	1084		2762		1092		2761	)
4	(	2762		2774		1084		1089	)
4	(	1092		2762		1084		1089	)
4	(	1091		1030		1088		2759	)
4	(	1091		1014		2735		1090	)
4	(	2735		2119		2759		2737	)
4	(	1088		1029		1090		2737	)
4	(	2735		2737		1088		1090	)
4	(	2735		1088		1091		1090	)
4	(	1088		2737		2735		2759	)
4	(	1091		1088		2735		2759	)
4	(	2724		2119		2727		2756	)
4	(	2724		2055		2758		2728	)
4	(	2758		2123		2756		2775	)
4	(	2727		2118		2728		2775	)
4	(	2758		2775		2727		2728	)
4	(	2758		2727		2724		2728	)
4	(	2727		2775		2758		2756	)
4	(	2724		2727		2758		2756	)
4	(	1083		1027		2776		1087	)
4	(	1015		1083		1086		2732	)
4	(	1086		1029		1087		2734	)
4	(	2776		2118		2732		2734	)
4	(	1086		2734		2776		2732	)
4	(	1086		2776		1083		2732	)
4	(	2734		2776		1086		1087	)
4	(	2776		1083		1086		1087	)
4	(	2727		2119		2737		2777	)
4	(	2727		2118		2776		2734	)
4	(	2776		1027		2777		1087	)
4	(	2737		1029		2734		1087	)
4	(	2776		1087		2737		2734	)
4	(	2776		2737		2727		2734	)
4	(	2737		1087		2776		2777	)
4	(	2727		2737		2776		2777	)
4	(	2777		2119		2737		2759	)
4	(	1027		2777		1089		1087	)
4	(	1089		1030		2759		1088	)
4	(	2737		1029		1087		1088	)
4	(	1089		1088		2737		1087	)
4	(	1089		2737		2777		1087	)
4	(	2737		1088		1089		2759	)
4	(	2777		2737		1089		2759	)
4	(	2776		1027		2774		2777	)
4	(	2776		2118		2727		2775	)
4	(	2727		2119		2777		2756	)
4	(	2774		2123		2775		2756	)
4	(	2727		2756		2774		2775	)
4	(	2727		2774		2776		2775	)
4	(	2774		2756		2727		2777	)
4	(	2776		2774		2727		2777	)
4	(	1089		1030		2762		2759	)
4	(	1089		1027		2777		2774	)
4	(	2777		2119		2759		2756	)
4	(	2762		2123		2774		2756	)
4	(	2777		2756		2762		2774	)
4	(	2777		2762		1089		2774	)
4	(	2762		2756		2777		2759	)
4	(	1089		2762		2777		2759	)
4	(	2687		2109		2770		2686	)
4	(	2687		2054		2683		2703	)
4	(	2683		2110		2686		2778	)
4	(	2770		2113		2703		2778	)
4	(	2683		2778		2770		2703	)
4	(	2683		2770		2687		2703	)
4	(	2770		2778		2683		2686	)
4	(	2687		2770		2683		2686	)
4	(	2691		2109		2693		2768	)
4	(	2691		1016		2761		1084	)
4	(	2761		2123		2768		2774	)
4	(	2693		1027		1084		2774	)
4	(	2761		2774		2693		1084	)
4	(	2761		2693		2691		1084	)
4	(	2693		2774		2761		2768	)
4	(	2691		2693		2761		2768	)
4	(	2758		2123		2775		2767	)
4	(	2758		2055		2711		2728	)
4	(	2711		2113		2767		2779	)
4	(	2775		2118		2728		2779	)
4	(	2711		2779		2775		2728	)
4	(	2711		2775		2758		2728	)
4	(	2775		2779		2711		2767	)
4	(	2758		2775		2711		2767	)
4	(	2694		2110		2780		2696	)
4	(	1015		2694		1083		2732	)
4	(	1083		1027		2696		2776	)
4	(	2780		2118		2732		2776	)
4	(	1083		2776		2780		2732	)
4	(	2780		1083		2694		2732	)
4	(	2780		2776		1083		2696	)
4	(	2780		2694		1083		2696	)
4	(	2775		2123		2774		2781	)
4	(	2775		2118		2780		2776	)
4	(	2780		2110		2781		2696	)
4	(	2774		1027		2776		2696	)
4	(	2780		2696		2774		2776	)
4	(	2780		2774		2775		2776	)
4	(	2774		2696		2780		2781	)
4	(	2775		2774		2780		2781	)
4	(	2781		2123		2774		2768	)
4	(	2781		2110		2686		2696	)
4	(	2686		2109		2768		2693	)
4	(	2774		1027		2696		2693	)
4	(	2686		2693		2774		2696	)
4	(	2686		2774		2781		2696	)
4	(	2774		2693		2686		2768	)
4	(	2781		2774		2686		2768	)
4	(	2780		2110		2778		2781	)
4	(	2780		2118		2775		2779	)
4	(	2775		2123		2781		2767	)
4	(	2778		2113		2779		2767	)
4	(	2775		2767		2778		2779	)
4	(	2775		2778		2780		2779	)
4	(	2778		2767		2775		2781	)
4	(	2780		2778		2775		2781	)
4	(	2686		2109		2770		2768	)
4	(	2686		2110		2781		2778	)
4	(	2781		2123		2768		2767	)
4	(	2770		2113		2778		2767	)