/*--------------------------------*- C++ -*----------------------------------*\
| =========                 |                                                 |
| \\      /  F ield         | OpenFOAM: The Open Source CFD Toolbox           |
|  \\    /   O peration     | Version:  v1806                                 |
|   \\  /    A nd           | Web:      www.OpenFOAM.com                      |
|    \\/     M anipulation  |                                                 |
\*---------------------------------------------------------------------------*/
FoamFile
{
    version     2.0;
    format      ascii;
    class       vectorField;
    object      currentcloudofpoints;
}
// * * * * * * * * * * * * * * * * * * * * * * * * * * * * * * * * * * * * * //
2409(
(	0.7		1		1	)
(	1		0.7		1	)
(	1		1.3		1	)
(	1		1		0.7	)
(	1		1		1.3	)
(	1		1		1	)
(	0.5		1		1	)
(	1		0.5		1	)
(	1		1.5		1	)
(	1		1		0.5	)
(	1		1		1.5	)
(	1		1.2853169549		1.0927050983	)
(	1		1.2427050983		1.1763355757	)
(	1		1.1763355757		1.2427050983	)
(	1		1.0927050983		1.2853169549	)
(	1		1.2926584774		1.0463525492	)
(	1		1.2640110266		1.134520337	)
(	1		1.209520337		1.209520337	)
(	1		1.134520337		1.2640110266	)
(	1		1.0463525492		1.2926584774	)
(	1		0.7146830451		1.0927050983	)
(	1		0.7572949017		1.1763355757	)
(	1		0.8236644243		1.2427050983	)
(	1		0.9072949017		1.2853169549	)
(	1		0.7073415226		1.0463525492	)
(	1		0.7359889734		1.134520337	)
(	1		0.790479663		1.209520337	)
(	1		0.865479663		1.2640110266	)
(	1		0.9536474508		1.2926584774	)
(	1		1.2853169549		0.9072949017	)
(	1		1.2427050983		0.8236644243	)
(	1		1.1763355757		0.7572949017	)
(	1		1.0927050983		0.7146830451	)
(	1		1.2926584774		0.9536474508	)
(	1		1.2640110266		0.865479663	)
(	1		1.209520337		0.790479663	)
(	1		1.134520337		0.7359889734	)
(	1		1.0463525492		0.7073415226	)
(	1		0.9072949017		0.7146830451	)
(	1		0.8236644243		0.7572949017	)
(	1		0.7572949017		0.8236644243	)
(	1		0.7146830451		0.9072949017	)
(	1		0.9536474508		0.7073415226	)
(	1		0.865479663		0.7359889734	)
(	1		0.790479663		0.790479663	)
(	1		0.7359889734		0.865479663	)
(	1		0.7073415226		0.9536474508	)
(	0.9072949017		1		1.2853169549	)
(	0.8236644243		1		1.2427050983	)
(	0.7572949017		1		1.1763355757	)
(	0.7146830451		1		1.0927050983	)
(	0.9536474508		1		1.2926584774	)
(	0.865479663		1		1.2640110266	)
(	0.790479663		1		1.209520337	)
(	0.7359889734		1		1.134520337	)
(	0.7073415226		1		1.0463525492	)
(	0.7146830451		1		0.9072949017	)
(	0.7572949017		1		0.8236644243	)
(	0.8236644243		1		0.7572949017	)
(	0.9072949017		1		0.7146830451	)
(	0.7073415226		1		0.9536474508	)
(	0.7359889734		1		0.865479663	)
(	0.790479663		1		0.790479663	)
(	0.865479663		1		0.7359889734	)
(	0.9536474508		1		0.7073415226	)
(	0.9072949017		0.7146830451		1	)
(	0.8236644243		0.7572949017		1	)
(	0.7572949017		0.8236644243		1	)
(	0.7146830451		0.9072949017		1	)
(	0.9536474508		0.7073415226		1	)
(	0.865479663		0.7359889734		1	)
(	0.790479663		0.790479663		1	)
(	0.7359889734		0.865479663		1	)
(	0.7073415226		0.9536474508		1	)
(	0.7146830451		1.0927050983		1	)
(	0.7572949017		1.1763355757		1	)
(	0.8236644243		1.2427050983		1	)
(	0.9072949017		1.2853169549		1	)
(	0.7073415226		1.0463525492		1	)
(	0.7359889734		1.134520337		1	)
(	0.790479663		1.209520337		1	)
(	0.865479663		1.2640110266		1	)
(	0.9536474508		1.2926584774		1	)
(	1		0.5096073598		1.097545161	)
(	1		0.5380602337		1.1913417162	)
(	1		0.5842651938		1.2777851165	)
(	1		0.6464466094		1.3535533906	)
(	1		0.7222148835		1.4157348062	)
(	1		0.8086582838		1.4619397663	)
(	1		0.902454839		1.4903926402	)
(	1		0.5048036799		1.0487725805	)
(	1		0.5238337968		1.1444434386	)
(	1		0.5611627138		1.2345634163	)
(	1		0.6153559016		1.3156692536	)
(	1		0.6843307464		1.3846440984	)
(	1		0.7654365837		1.4388372862	)
(	1		0.8555565614		1.4761662032	)
(	1		0.9512274195		1.4951963201	)
(	1		1.097545161		1.4903926402	)
(	1		1.1913417162		1.4619397663	)
(	1		1.2777851165		1.4157348062	)
(	1		1.3535533906		1.3535533906	)
(	1		1.4157348062		1.2777851165	)
(	1		1.4619397663		1.1913417162	)
(	1		1.4903926402		1.097545161	)
(	1		1.0487725805		1.4951963201	)
(	1		1.1444434386		1.4761662032	)
(	1		1.2345634163		1.4388372862	)
(	1		1.3156692536		1.3846440984	)
(	1		1.3846440984		1.3156692536	)
(	1		1.4388372862		1.2345634163	)
(	1		1.4761662032		1.1444434386	)
(	1		1.4951963201		1.0487725805	)
(	1		0.5096073598		0.902454839	)
(	1		0.5380602337		0.8086582838	)
(	1		0.5842651938		0.7222148835	)
(	1		0.6464466094		0.6464466094	)
(	1		0.7222148835		0.5842651938	)
(	1		0.8086582838		0.5380602337	)
(	1		0.902454839		0.5096073598	)
(	1		0.5048036799		0.9512274195	)
(	1		0.5238337968		0.8555565614	)
(	1		0.5611627138		0.7654365837	)
(	1		0.6153559016		0.6843307464	)
(	1		0.6843307464		0.6153559016	)
(	1		0.7654365837		0.5611627138	)
(	1		0.8555565614		0.5238337968	)
(	1		0.9512274195		0.5048036799	)
(	1		1.4903926402		0.902454839	)
(	1		1.4619397663		0.8086582838	)
(	1		1.4157348062		0.7222148835	)
(	1		1.3535533906		0.6464466094	)
(	1		1.2777851165		0.5842651938	)
(	1		1.1913417162		0.5380602337	)
(	1		1.097545161		0.5096073598	)
(	1		1.4951963201		0.9512274195	)
(	1		1.4761662032		0.8555565614	)
(	1		1.4388372862		0.7654365837	)
(	1		1.3846440984		0.6843307464	)
(	1		1.3156692536		0.6153559016	)
(	1		1.2345634163		0.5611627138	)
(	1		1.1444434386		0.5238337968	)
(	1		1.0487725805		0.5048036799	)
(	0.5096073598		1		1.097545161	)
(	0.5380602337		1		1.1913417162	)
(	0.5842651938		1		1.2777851165	)
(	0.6464466094		1		1.3535533906	)
(	0.7222148835		1		1.4157348062	)
(	0.8086582838		1		1.4619397663	)
(	0.902454839		1		1.4903926402	)
(	0.5048036799		1		1.0487725805	)
(	0.5238337968		1		1.1444434386	)
(	0.5611627138		1		1.2345634163	)
(	0.6153559016		1		1.3156692536	)
(	0.6843307464		1		1.3846440984	)
(	0.7654365837		1		1.4388372862	)
(	0.8555565614		1		1.4761662032	)
(	0.9512274195		1		1.4951963201	)
(	0.5096073598		1		0.902454839	)
(	0.5380602337		1		0.8086582838	)
(	0.5842651938		1		0.7222148835	)
(	0.6464466094		1		0.6464466094	)
(	0.7222148835		1		0.5842651938	)
(	0.8086582838		1		0.5380602337	)
(	0.902454839		1		0.5096073598	)
(	0.5048036799		1		0.9512274195	)
(	0.5238337968		1		0.8555565614	)
(	0.5611627138		1		0.7654365837	)
(	0.6153559016		1		0.6843307464	)
(	0.6843307464		1		0.6153559016	)
(	0.7654365837		1		0.5611627138	)
(	0.8555565614		1		0.5238337968	)
(	0.9512274195		1		0.5048036799	)
(	0.902454839		0.5096073598		1	)
(	0.8086582838		0.5380602337		1	)
(	0.7222148835		0.5842651938		1	)
(	0.6464466094		0.6464466094		1	)
(	0.5842651938		0.7222148835		1	)
(	0.5380602337		0.8086582838		1	)
(	0.5096073598		0.902454839		1	)
(	0.9512274195		0.5048036799		1	)
(	0.8555565614		0.5238337968		1	)
(	0.7654365837		0.5611627138		1	)
(	0.6843307464		0.6153559016		1	)
(	0.6153559016		0.6843307464		1	)
(	0.5611627138		0.7654365837		1	)
(	0.5238337968		0.8555565614		1	)
(	0.5048036799		0.9512274195		1	)
(	0.5096073598		1.097545161		1	)
(	0.5380602337		1.1913417162		1	)
(	0.5842651938		1.2777851165		1	)
(	0.6464466094		1.3535533906		1	)
(	0.7222148835		1.4157348062		1	)
(	0.8086582838		1.4619397663		1	)
(	0.902454839		1.4903926402		1	)
(	0.5048036799		1.0487725805		1	)
(	0.5238337968		1.1444434386		1	)
(	0.5611627138		1.2345634163		1	)
(	0.6153559016		1.3156692536		1	)
(	0.6843307464		1.3846440984		1	)
(	0.7654365837		1.4388372862		1	)
(	0.8555565614		1.4761662032		1	)
(	0.9512274195		1.4951963201		1	)
(	1		1		0.6	)
(	1		1		0.55	)
(	1		1		0.65	)
(	1		1		1.4	)
(	1		1		1.35	)
(	1		1		1.45	)
(	1		0.6		1	)
(	1		0.65		1	)
(	1		0.55		1	)
(	1		1.4		1	)
(	1		1.35		1	)
(	1		1.45		1	)
(	0.6321131415		1.2020596628		1.2717188842	)
(	0.6107128757		1.2456557345		1.1952147405	)
(	0.8251050179		1.1672900181		1.4375223366	)
(	0.7367940322		1.3868209832		1.1763296501	)
(	0.5265425397		1.1319951192		1.0917350632	)
(	0.9164754688		1.1415801236		1.4722062275	)
(	0.9058631002		1.469556169		1.1437193385	)
(	0.8313054438		1.4123514941		1.2269546034	)
(	0.5644596188		1.1524051353		1.1925545406	)
(	0.6786372837		1.3003456239		1.2377362209	)
(	0.6414765865		1.3216413592		1.1341931369	)
(	0.6089801581		1.0943388157		1.2969910287	)
(	0.7655723567		1.3325404234		1.2906209677	)
(	0.8110833512		1.440134342		1.1435000378	)
(	0.7141445225		1.2474272087		1.3272100585	)
(	0.8496399662		1.4714780402		1.0714165096	)
(	0.9028432224		1.2264167456		1.4350816221	)
(	0.7684042437		1.4351328079		1.0838024172	)
(	0.5249894327		1.071578163		1.1387138332	)
(	0.8544381593		1.0720382517		1.4728871333	)
(	0.7506150282		1.0975756908		1.4222394112	)
(	0.8089978877		1.2650633866		1.3784964916	)
(	0.9166488758		1.4244865181		1.2507265164	)
(	0.5724399105		1.2394634269		1.0992453376	)
(	0.5558085982		1.0656381737		1.2199673355	)
(	0.7511309354		1.1905735374		1.389545781	)
(	0.9278252911		1.373813917		1.3241202969	)
(	0.8513989655		1.3588719204		1.3148470697	)
(	0.508448764		1.0637673858		1.0656589892	)
(	0.934025662		1.0628487553		1.4916273189	)
(	0.9310109315		1.4911867678		1.0630560672	)
(	0.678283574		1.1574830459		1.3488518762	)
(	0.6761796726		1.0717230582		1.3741606586	)
(	0.912445179		1.3156828012		1.3777281064	)
(	0.6064261549		1.302499175		1.0599489586	)
(	0.6972787559		1.3895360238		1.0813728119	)
(	0.9582377344		1.1195626423		1.4812994339	)
(	0.9582377344		1.1664609199		1.4670729969	)
(	0.967012831		1.0314243777		1.4958136594	)
(	0.967012831		1.0801969582		1.4910099795	)
(	0.9252505654		1.1022144395		1.4819167732	)
(	0.9514216112		1.2088792309		1.4485106942	)
(	0.9514216112		1.252100931		1.4254082141	)
(	0.9096593456		1.1839984346		1.4536439248	)
(	0.9562225895		1.2967339588		1.3967314563	)
(	0.9562225895		1.3346180959		1.3656407485	)
(	0.9076442007		1.2710497734		1.4064048643	)
(	0.9639126455		1.3636836538		1.3388368437	)
(	0.9639126455		1.3947743616		1.3009527067	)
(	0.920135235		1.3447483591		1.3509242016	)
(	0.9583244379		1.4201106621		1.2642558165	)
(	0.9583244379		1.4432131422		1.2210341163	)
(	0.9222370834		1.3991502176		1.2874234066	)
(	0.9529315501		1.4657479676		1.1675305274	)
(	0.9529315501		1.4799744046		1.1206322498	)
(	0.911255988		1.4470213435		1.1972229275	)
(	0.9655054657		1.490789704		1.0803006141	)
(	0.9655054657		1.4955933839		1.0315280336	)
(	0.9184370158		1.4803714684		1.1033877029	)
(	0.9167328852		1.490789704		1.0315280336	)
(	0.5323013867		1.1616684177		1.0458675316	)
(	0.5180749498		1.1147701401		1.0458675316	)
(	0.5174956519		1.0978812525		1.0786970262	)
(	0.5090280619		1.0806562734		1.0328294946	)
(	0.504224382		1.0318836929		1.0328294946	)
(	0.5783525522		1.2586242717		1.0496226688	)
(	0.5552500721		1.2154025715		1.0496226688	)
(	0.5494912251		1.1857292731		1.0954902004	)
(	0.6264363822		1.3280262828		1.0299744793	)
(	0.5953456744		1.2901421457		1.0299744793	)
(	0.5894330327		1.2709813009		1.0795971481	)
(	0.7097468197		1.402635415		1.040686406	)
(	0.6718626827		1.3715447072		1.040686406	)
(	0.6518524554		1.3460175994		1.0706608853	)
(	0.7885312638		1.4485362871		1.0419012086	)
(	0.7453095636		1.425433807		1.0419012086	)
(	0.7328414998		1.4123344159		1.0825876146	)
(	0.8760474026		1.4809353402		1.0357082548	)
(	0.829149125		1.4667089032		1.0357082548	)
(	0.809022105		1.4533054241		1.0776094634	)
(	0.8903254488		1.481332404		1.0672362884	)
(	0.5982863802		1.1772323991		1.2321367124	)
(	0.5875862473		1.1990304349		1.1938846406	)
(	0.6214130086		1.2238576987		1.2334668124	)
(	0.6446750797		1.2730006792		1.2164754807	)
(	0.6553752126		1.2512026434		1.2547275526	)
(	0.5684497647		1.1959342811		1.1458999391	)
(	0.5915763931		1.2425595807		1.1472300391	)
(	0.6260947311		1.2836485469		1.1647039387	)
(	0.6600569351		1.3109934916		1.1859646789	)
(	0.6069582485		1.280552393		1.1167192372	)
(	0.8707902433		1.1544350709		1.4548642821	)
(	0.8639741201		1.1968533818		1.4363019794	)
(	0.8854568141		1.1068091876		1.4725466804	)
(	0.8397715886		1.1196641349		1.455204735	)
(	0.8170514528		1.2161767024		1.4080094141	)
(	0.855920555		1.2457400661		1.4067890568	)
(	0.787860023		1.1324328545		1.4298808739	)
(	0.8025265938		1.0848069712		1.4475632723	)
(	0.7881179766		1.1789317778		1.4135340588	)
(	0.7508729818		1.1440746141		1.4058925961	)
(	0.7800644115		1.227818462		1.3840211363	)
(	0.7170363941		1.3881785035		1.128851231	)
(	0.752599138		1.4109768956		1.1300660337	)
(	0.6891353094		1.3542311712		1.1552613935	)
(	0.6693776712		1.3555886915		1.1077829744	)
(	0.7984389003		1.3724459588		1.2587877855	)
(	0.7511831945		1.3596807033		1.2334753089	)
(	0.784049738		1.3995862387		1.2016421268	)
(	0.7739386917		1.4134776626		1.159914844	)
(	0.8211943975		1.4262429181		1.1852273206	)
(	0.7897437975		1.437633575		1.1136512275	)
(	0.7077156579		1.3435833035		1.2070329355	)
(	0.7221048202		1.3164430237		1.2641785943	)
(	0.5447245258		1.1119916492		1.1656341869	)
(	0.5257659862		1.1017866411		1.1152244482	)
(	0.5455010793		1.1422001273		1.1421448019	)
(	0.5167190983		1.0676727744		1.1021864112	)
(	0.5172983962		1.0357890815		1.1181294971	)
(	0.5315248332		1.0357890815		1.1650277747	)
(	0.5090280619		1.0318836929		1.0816020751	)
(	0.5469344159		1.0328190869		1.2056545258	)
(	0.570036896		1.0328190869		1.248876226	)
(	0.5403990154		1.0686081684		1.1793405843	)
(	0.596622676		1.0471694079		1.2873880726	)
(	0.6277133838		1.0471694079		1.3252722096	)
(	0.5823943781		1.0799884947		1.2584791821	)
(	0.699197278		1.0358615291		1.3949477324	)
(	0.661313141		1.0358615291		1.3638570246	)
(	0.6425799154		1.0830309369		1.3355758437	)
(	0.7364149558		1.0487878454		1.4189871087	)
(	0.779636656		1.0487878454		1.4420895887	)
(	0.7133973504		1.0846493745		1.3982000349	)
(	0.8315482216		1.0360191258		1.4674134498	)
(	0.8784464992		1.0360191258		1.4816398867	)
(	0.9182402505		1.0314243777		1.4910099795	)
(	0.8942319107		1.0674435035		1.4822572261	)
(	0.6205466498		1.1481992392		1.2843549564	)
(	0.6551983578		1.1797713543		1.3102853802	)
(	0.6436318661		1.1259109308		1.3229214524	)
(	0.6962140482		1.2024551273		1.3380309673	)
(	0.673128832		1.2247434357		1.2994644713	)
(	0.5867198885		1.1233719755		1.2447727846	)
(	0.6963909031		1.2738864163		1.2824731397	)
(	0.8777515332		1.4705171046		1.1075679241	)
(	0.6772316233		1.114603052		1.3615062674	)
(	0.7144493011		1.1275293683		1.3855456437	)
(	0.7147072547		1.1740282916		1.3691988286	)
(	0.7326377289		1.2190003731		1.3583779197	)
(	0.6239513707		1.3120702671		1.0970710477	)
(	0.8584732257		1.4548452555		1.1436096881	)
(	0.868584272		1.4409538316		1.185336971	)
(	0.8739771598		1.4184190061		1.2388405599	)
(	0.8303616587		1.4558061911		1.1074582737	)
(	0.8413522047		1.3856117073		1.2709008365	)
(	0.8084856611		1.3457061719		1.3027340187	)
(	0.8840239206		1.3916792193		1.2827867931	)
(	0.5601341085		1.1090216545		1.206260938	)
(	0.7398584396		1.2899838161		1.3089155131	)
(	0.7615712051		1.2562452977		1.352853275	)
(	0.7872851222		1.298801905		1.3345587296	)
(	0.8301984266		1.3119676535		1.3466717806	)
(	0.8607215333		1.2903730939		1.378112299	)
(	0.8819220722		1.3372773608		1.346287588	)
(	0.8896121283		1.3663429187		1.3194836833	)
(	0.7310999467		0.7480306915		1.3379411619	)
(	0.6026763461		0.7525431808		1.1757812182	)
(	0.7766636865		0.5875424885		1.1732041924	)
(	0.845716456		0.5611669227		1.1833633506	)
(	0.6041557777		0.8099074643		1.2391070462	)
(	0.7416251737		0.8329486021		1.3941272378	)
(	0.9269632681		0.5281883485		1.1485240766	)
(	0.5258119261		0.9317929138		1.1431553839	)
(	0.9154444666		0.8611029526		1.4728191747	)
(	0.6529099375		0.7437469344		1.2527110105	)
(	0.8331731171		0.6166983967		1.2743149141	)
(	0.5510975314		0.8344126916		1.1451461918	)
(	0.6648388379		0.8329318568		1.3312932703	)
(	0.9054776223		0.7606154916		1.4286730423	)
(	0.6837858717		0.9202998579		1.3790204644	)
(	0.6154820002		0.9013392891		1.3039933748	)
(	0.9171264215		0.5683224863		1.2382991695	)
(	0.8571769028		0.9286222301		1.473821461	)
(	0.8406368507		0.5355817605		1.0944409097	)
(	0.5957508832		0.7217602598		1.0957355659	)
(	0.8303265295		0.8389940893		1.4419140302	)
(	0.5614050296		0.9042719452		1.2201603766	)
(	0.7660358163		0.924471137		1.4353804676	)
(	0.6553224149		0.6487082499		1.0882692963	)
(	0.864383529		0.6850650863		1.3639013231	)
(	0.9247822851		0.6250844391		1.3221499924	)
(	0.7246986848		0.6606384612		1.2429875138	)
(	0.7928407498		0.6869735744		1.3303021373	)
(	0.9375303298		0.6834111649		1.3819280689	)
(	0.8069498918		0.7538901968		1.3900789926	)
(	0.6951091041		0.6316459503		1.1461397811	)
(	0.6478854305		0.6877144954		1.1687989738	)
(	0.9347895061		0.5090545196		1.0687031791	)
(	0.9343936644		0.9378466194		1.49176495	)
(	0.7284142279		0.5867917087		1.0741625	)
(	0.5154126972		0.8963693745		1.0666020978	)
(	0.5497117332		0.7921431108		1.0635294453	)
(	0.8838000594		0.5318850545		1.1214824932	)
(	0.8431766534		0.5483743416		1.1389021302	)
(	0.886339862		0.5446776356		1.1659437136	)
(	0.9308763871		0.5186214341		1.1086136278	)
(	0.8877131784		0.5223181401		1.0815720444	)
(	0.8814214387		0.5647447045		1.2108312601	)
(	0.9220448448		0.5482554174		1.193411623	)
(	0.9634816341		0.5188978542		1.1230346188	)
(	0.9634816341		0.5331242911		1.1699328964	)
(	0.9673947531		0.5093309397		1.08312417	)
(	0.9585632107		0.55319136		1.2148204428	)
(	0.9577222333		0.8348806182		1.4673794705	)
(	0.9577222333		0.8817788958		1.4816059075	)
(	0.9527388111		0.7414151875		1.4222039242	)
(	0.9527388111		0.7846368877		1.4453064043	)
(	0.9104610445		0.8108592221		1.4507461085	)
(	0.9671968322		0.9201507292		1.4910787951	)
(	0.9671968322		0.9689233097		1.495882475	)
(	0.9249190655		0.899474786		1.4822920624	)
(	0.5768869388		0.7934779362		1.160463705	)
(	0.5776266546		0.8221600779		1.192126619	)
(	0.6034160619		0.7812253225		1.2074441322	)
(	0.5562512805		0.8693423184		1.1826532842	)
(	0.5827804036		0.8570897047		1.2296337114	)
(	0.6344973078		0.8214196605		1.2852001582	)
(	0.609818889		0.8556233767		1.2715502105	)
(	0.640160419		0.867135573		1.3176433226	)
(	0.6285328576		0.7768271993		1.2459090284	)
(	0.6588743877		0.7883393956		1.2920021404	)
(	0.5884435149		0.9028056171		1.2620768757	)
(	0.6277931418		0.7481450576		1.2142461144	)
(	0.8111900712		0.5743547056		1.1782837715	)
(	0.8086502686		0.5615621245		1.1338225511	)
(	0.7845255393		0.5611867346		1.0843017048	)
(	0.7525389572		0.5871670986		1.1236833462	)
(	0.8246475673		0.5368209971		1.0472204549	)
(	0.8715458449		0.5225945601		1.0472204549	)
(	0.9186221726		0.5093309397		1.0343515895	)
(	0.7685362559		0.5624259712		1.03708125	)
(	0.5384547288		0.8831028027		1.1441507879	)
(	0.5436084778		0.9180324295		1.1816578803	)
(	0.5332551143		0.8653910331		1.1058741448	)
(	0.5206123116		0.9140811442		1.1048787409	)
(	0.5761940396		0.7723431458		1.1196553318	)
(	0.5504046323		0.8132779012		1.1043378186	)
(	0.5325622152		0.8442562427		1.0650657716	)
(	0.6743123548		0.8766158574		1.3551568673	)
(	0.6496339359		0.9108195735		1.3415069196	)
(	0.7127055227		0.87662423		1.3865738511	)
(	0.7032320058		0.8329402294		1.362710254	)
(	0.6979693923		0.7904812741		1.3346172161	)
(	0.7363625602		0.7904896468		1.3660341999	)
(	0.6920049421		0.7458888129		1.2953260862	)
(	0.9687651649		0.7028130242		1.3988314375	)
(	0.921503976		0.7220133283		1.4053005556	)
(	0.8679020759		0.7998047904		1.4352935363	)
(	0.8728854981		0.8500485209		1.4573666025	)
(	0.856213757		0.7572528442		1.4093760175	)
(	0.8186382107		0.796442143		1.4159965114	)
(	0.8849305757		0.7228402889		1.3962871827	)
(	0.9009569294		0.6842381256		1.372914696	)
(	0.8356667104		0.7194776415		1.3769901578	)
(	0.6651162406		0.960149929		1.3662869275	)
(	0.6309643048		0.9506696446		1.3287733827	)
(	0.7030003776		0.960149929		1.3973776353	)
(	0.7441253499		0.9622355685		1.4255576369	)
(	0.724910844		0.9223854975		1.407200466	)
(	0.753830495		0.8787098695		1.4147538527	)
(	0.599873597		0.9506696446		1.2908892457	)
(	0.5728351117		0.9521359726		1.2489727466	)
(	0.8798158709		0.964311115		1.4821070506	)
(	0.8329175933		0.964311115		1.4678806136	)
(	0.8116063596		0.9265466835		1.4546009643	)
(	0.7873470501		0.9622355685		1.4486601169	)
(	0.9184242517		0.9689233097		1.4910787951	)
(	0.8957852836		0.9332344248		1.4827932055	)
(	0.8863106847		0.8948625913		1.4733203179	)
(	0.8437517162		0.8838081597		1.4578677456	)
(	0.7981811729		0.8817326131		1.4386472489	)
(	0.8049184018		0.6021204426		1.2237595532	)
(	0.8394447866		0.5889326597		1.2288391324	)
(	0.7506811856		0.6240904749		1.2080958531	)
(	0.778935901		0.638668429		1.2586512139	)
(	0.711761666		0.6092188295		1.1101511405	)
(	0.7358863953		0.6095942194		1.1596719867	)
(	0.7099038944		0.6461422057		1.1945636474	)
(	0.8751497693		0.5925104415		1.2563070418	)
(	0.5319360799		0.9658964569		1.16724855	)
(	0.5177096429		0.9658964569		1.1203502725	)
(	0.5125100285		0.9481846873		1.0820736294	)
(	0.5077063486		0.9481846873		1.0333010489	)
(	0.5497326317		0.9521359726		1.2057510464	)
(	0.7742875327		0.7934193994		1.3921031152	)
(	0.7690249192		0.7509604441		1.3640100773	)
(	0.7278993158		0.7043345764		1.2904643379	)
(	0.6888043111		0.7021926978		1.2478492622	)
(	0.7619703482		0.717502133		1.3341216496	)
(	0.7587697173		0.6738060178		1.2866448256	)
(	0.7998953208		0.7204318856		1.360190565	)
(	0.9673947531		0.5045272598		1.0343515895	)
(	0.7253145557		0.5855284513		1.03708125	)
(	0.6874304186		0.6166191591		1.03708125	)
(	0.5900080385		0.7219875717		1.047867783	)
(	0.6210987463		0.6841034346		1.047867783	)
(	0.6508845122		0.6475774297		1.0441346481	)
(	0.6918683214		0.6177499793		1.0812158981	)
(	0.6255366491		0.6852342549		1.0920024311	)
(	0.5438859835		0.8004006973		1.0317647227	)
(	0.5669884635		0.7571789972		1.0317647227	)
(	0.5727313082		0.7569516853		1.0796325056	)
(	0.5125100285		0.8994121068		1.0333010489	)
(	0.5267364655		0.8525138292		1.0333010489	)
(	0.9585632107		0.5762938401		1.258042143	)
(	0.9623911426		0.6357655243		1.3378516915	)
(	0.9623911426		0.6046748165		1.2999675544	)
(	0.9209543533		0.5967034627		1.2802245809	)
(	0.9687651649		0.6649288872		1.3677407298	)
(	0.9311563075		0.654247802		1.3520390307	)
(	0.7859758516		0.8359713457		1.418020634	)
(	0.8789777011		0.6208914179		1.2982324532	)
(	0.6252808883		0.7201288381		1.172290096	)
(	0.650397684		0.7157307149		1.2107549922	)
(	0.6862920577		0.6741764783		1.2058932438	)
(	0.8945829071		0.6550747627		1.3430256577	)
(	0.8487783231		0.6508817415		1.3191081186	)
(	0.8130069335		0.6518359856		1.3023085257	)
(	0.8286121394		0.6860193303		1.3471017302	)
(	0.6218181569		0.7047373776		1.1322672699	)
(	0.5992136147		0.7371517203		1.1357583921	)
(	0.6752157595		0.6401771001		1.1172045387	)
(	0.6516039227		0.6682113727		1.128534135	)
(	0.6714972673		0.6596802228		1.1574693774	)
(	0.782276866		0.6532900368		0.7129654405	)
(	0.6438494238		0.8074766226		0.7065864416	)
(	0.8108117632		0.6033493554		0.7615129413	)
(	0.8417048306		0.559483855		0.8242497073	)
(	0.5694609721		0.795799836		0.8485455894	)
(	0.8047866058		0.8337000134		0.5707727348	)
(	0.5384534578		0.8835017626		0.8470197723	)
(	0.8522916769		0.9207649091		0.5289330709	)
(	0.7367056305		0.6490272492		0.7602205113	)
(	0.6203337977		0.755851416		0.7849533917	)
(	0.8852231746		0.6981995842		0.6182372604	)
(	0.6172343451		0.9026579771		0.6933813704	)
(	0.7243116583		0.8077742707		0.629803826	)
(	0.7016460413		0.7162486808		0.7163274702	)
(	0.8043405697		0.7628668806		0.6056837931	)
(	0.5834012663		0.8377358257		0.776134342	)
(	0.7576566762		0.9096965754		0.5720806093	)
(	0.9076836853		0.5645196623		0.7723279255	)
(	0.9151229405		0.8618477094		0.5270202654	)
(	0.9234768538		0.5258048898		0.8611360178	)
(	0.7540403982		0.569230778		0.9372166289	)
(	0.6054053381		0.713093979		0.8905468691	)
(	0.6824634843		0.6246971307		0.9087951892	)
(	0.8416530123		0.5332220286		0.916068141	)
(	0.5655814855		0.9211327527		0.7653502363	)
(	0.6736337298		0.6696663927		0.81462264	)
(	0.8775248933		0.6264643972		0.691016179	)
(	0.757769541		0.5919715551		0.8424017993	)
(	0.6825494045		0.9093979286		0.6244785172	)
(	0.5384883656		0.8202358633		0.9315027999	)
(	0.8969606853		0.7728924986		0.5666351625	)
(	0.9328663715		0.5087620944		0.9353594865	)
(	0.5124442341		0.9321892902		0.9123011812	)
(	0.7885636867		0.7042227099		0.656764687	)
(	0.6631955511		0.8549204206		0.6601254955	)
(	0.9334275731		0.9365126931		0.5085353789	)
(	0.7191758359		0.682637965		0.7382739907	)
(	0.7419614537		0.6847693588		0.7146464554	)
(	0.7594912483		0.651158643		0.7365929759	)
(	0.7965443146		0.6283196961		0.7372391909	)
(	0.7737586968		0.6261883023		0.7608667263	)
(	0.7854202764		0.6787563733		0.6848650638	)
(	0.745104864		0.7102356953		0.6865460786	)
(	0.8441683282		0.6149068763		0.7262645601	)
(	0.8299008797		0.639877217		0.7019908097	)
(	0.83304429		0.6653435535		0.673890433	)
(	0.8599547732		0.8477738614		0.5488965001	)
(	0.8285391413		0.8772324613		0.5498529029	)
(	0.8837073087		0.8913063093		0.5279766682	)
(	0.781221641		0.8716982944		0.5714266721	)
(	0.8049741765		0.9152307423		0.5505068401	)
(	0.9060418129		0.817370104		0.5468277139	)
(	0.8508736455		0.803296256		0.5687039486	)
(	0.8045635878		0.798283447		0.588228264	)
(	0.764326114		0.7853205756		0.6177438095	)
(	0.7645491321		0.820737142		0.6002882804	)
(	0.7409841673		0.8587354231		0.6009422177	)
(	0.8506506275		0.7678796896		0.5861594778	)
(	0.917941206		0.9682563465		0.5090713693	)
(	0.9667137865		0.9682563465		0.5042676894	)
(	0.9667137865		0.919483766		0.5090713693	)
(	0.5609273621		0.8606187941		0.8115770571	)
(	0.5764311192		0.8167678308		0.8123399657	)
(	0.553957215		0.8396507993		0.8477826809	)
(	0.5744913759		0.8794342892		0.7707422892	)
(	0.5520174717		0.9023172577		0.8061850043	)
(	0.5384709117		0.8518688129		0.8892612861	)
(	0.5539746688		0.8080178496		0.8900241946	)
(	0.5518208596		0.9605663764		0.7870042601	)
(	0.5382568458		0.9417508813		0.8278390281	)
(	0.525448846		0.9078455264		0.8796604768	)
(	0.5252522339		0.9660946451		0.8604797325	)
(	0.5254662999		0.8762125767		0.9219019905	)
(	0.892859625		0.9286388011		0.5187342249	)
(	0.9242752568		0.8991802012		0.5177778221	)
(	0.78315748		0.9548482877		0.5550704215	)
(	0.8304749803		0.9603824546		0.5334966523	)
(	0.8773732579		0.9603824546		0.5192702154	)
(	0.7051696802		0.659346821		0.7874215757	)
(	0.6876398856		0.6929575368		0.7654750551	)
(	0.7842906521		0.5976604552		0.8019573703	)
(	0.7472375857		0.6204994021		0.8013111553	)
(	0.7157016354		0.6308189739		0.8285122197	)
(	0.9575614703		0.8352529966		0.5325402496	)
(	0.9575614703		0.8821512742		0.5183138126	)
(	0.9484803426		0.7907753912		0.5523476981	)
(	0.6727477326		0.7618626517		0.7114569559	)
(	0.6609899195		0.7360500484		0.7506404309	)
(	0.6320916108		0.7816640193		0.7457699166	)
(	0.6469837638		0.7127589044		0.7997880159	)
(	0.601867532		0.7967936208		0.7805438668	)
(	0.5948973849		0.775825626		0.8167494906	)
(	0.6136253451		0.8226062241		0.7413603918	)
(	0.6128695679		0.7344726975		0.8377501304	)
(	0.5874331551		0.7544469075		0.8695462292	)
(	0.6395195339		0.6913801858		0.8525847546	)
(	0.7964521282		0.7335447952		0.6312242401	)
(	0.8447818722		0.7305332324		0.6119605268	)
(	0.8368934307		0.701211147		0.6375009737	)
(	0.8910919299		0.7355460414		0.5924362114	)
(	0.9426115873		0.7102072338		0.6012512271	)
(	0.9426115873		0.6723230968		0.6323419349	)
(	0.881374034		0.6623319907		0.6546267197	)
(	0.9387624467		0.6364555033		0.6687313942	)
(	0.9484803426		0.747553691		0.5754501782	)
(	0.6305418845		0.8550672998		0.699983906	)
(	0.6003178057		0.8701969014		0.7347578562	)
(	0.5914079153		0.9118953649		0.7293658034	)
(	0.6318404772		0.9513289885		0.6699139899	)
(	0.6007497695		0.9513289885		0.707798127	)
(	0.5749233397		0.9605663764		0.7437825599	)
(	0.6498918748		0.9060279528		0.6589299438	)
(	0.664498007		0.9546989643		0.6354625633	)
(	0.6402149481		0.8787891988		0.676753433	)
(	0.6535224875		0.8311985216		0.6833559685	)
(	0.6728724778		0.8821591746		0.6423020063	)
(	0.6840805411		0.8076254467		0.6681951338	)
(	0.7129788498		0.7620114758		0.6730656481	)
(	0.7564376725		0.7559984903		0.6432842565	)
(	0.7201030403		0.909547252		0.5982795633	)
(	0.7034305314		0.8585860996		0.6271411716	)
(	0.6937536047		0.8313473456		0.6449646607	)
(	0.7399357798		0.9548482877		0.5781729016	)
(	0.702382144		0.9546989643		0.6043718555	)
(	0.8592477242		0.5839345088		0.7669204334	)
(	0.874694258		0.5620017587		0.7982888164	)
(	0.8262582969		0.5814166052		0.7928813243	)
(	0.8825908422		0.5426443724		0.8426928626	)
(	0.9155802696		0.545162276		0.8167319717	)
(	0.9538418426		0.551289948		0.7904931047	)
(	0.9538418426		0.5743924281		0.7472714045	)
(	0.9617384269		0.5319325618		0.8348971508	)
(	0.8926042893		0.5954920297		0.7316720522	)
(	0.9387624467		0.6053647955		0.7066155312	)
(	0.5719468518		0.7666649211		0.9110248345	)
(	0.7997371858		0.5757277051		0.8333257533	)
(	0.8825649331		0.5295134592		0.8886020794	)
(	0.8416789215		0.5463529418		0.8701589242	)
(	0.7997112766		0.5625967919		0.8792349702	)
(	0.511025797		0.9660946451		0.9073780101	)
(	0.5062221171		0.9660946451		0.9561505906	)
(	0.8251556481		0.5356411312		0.9580340705	)
(	0.8720539257		0.5214146942		0.9580340705	)
(	0.9176606052		0.5091847271		0.9676797432	)
(	0.9664331857		0.5043810472		0.9676797432	)
(	0.8872596919		0.5209920615		0.9257138138	)
(	0.7381276409		0.5767479859		0.9686083144	)
(	0.781349341		0.5536455059		0.9686083144	)
(	0.7978467053		0.5512264033		0.926642385	)
(	0.6644550469		0.6355718701		0.9543975946	)
(	0.7023391839		0.6044811623		0.9543975946	)
(	0.7182519413		0.5969639544		0.923005909	)
(	0.6259259737		0.6797702942		0.9452734345	)
(	0.594835266		0.7176544312		0.9452734345	)
(	0.6439344112		0.6688955548		0.8996710291	)
(	0.5382742997		0.8144470735		0.9657513999	)
(	0.5613767797		0.7712253734		0.9657513999	)
(	0.5240478627		0.8613453511		0.9657513999	)
(	0.511025797		0.9173220646		0.9561505906	)
(	0.9664331857		0.5091847271		0.9189071627	)
(	0.9617384269		0.5177061248		0.8817954284	)
(	0.9281716127		0.5172834921		0.8982477521	)
(	0.7559049696		0.5806011666		0.8898092141	)
(	0.7201165127		0.6083343429		0.8755984942	)
(	0.6780486071		0.6471817617		0.8617089146	)
(	0.6321131415		1.2717188842		0.7979403372	)
(	0.6107128757		1.1952147405		0.7543442655	)