/*--------------------------------*- C++ -*----------------------------------*\
| =========                 |                                                 |
| \\      /  F ield         | OpenFOAM: The Open Source CFD Toolbox           |
|  \\    /   O peration     | Version:  v1806                                 |
|   \\  /    A nd           | Web:      www.OpenFOAM.com                      |
|    \\/     M anipulation  |                                                 |
\*---------------------------------------------------------------------------*/
FoamFile
{
    version     2.0;
    format      ascii;
    class       labelListList;
    location    "constant";
    object      connectivity;
}
// * * * * * * * * * * * * * * * * * * * * * * * * * * * * * * * * * * * * * //


10248
(
4(1415 745 1418 1417)
4(1415 1035 1416 1420)
4(1416 1394 1417 1419)
4(1418 1410 1420 1419)
4(1416 1419 1418 1420)
4(1416 1418 1415 1420)
4(1418 1419 1416 1417)
4(1415 1418 1416 1417)
4(1114 1100 1421 1116)
4(1114 1097 1115 1423)
4(1115 1094 1116 1422)
4(1421 575 1423 1422)
4(1115 1422 1421 1423)
4(1115 1421 1114 1423)
4(1421 1422 1115 1116)
4(1114 1421 1115 1116)
4(1421 1100 1424 1116)
4(1421 575 1422 1426)
4(1422 1094 1116 1425)
4(1424 1383 1426 1425)
4(1422 1425 1424 1426)
4(1422 1424 1421 1426)
4(1424 1425 1422 1116)
4(1421 1424 1422 1116)
4(1427 551 1429 1428)
4(1427 1383 1424 1431)
4(1424 1100 1428 1430)
4(1429 1405 1431 1430)
4(1424 1430 1429 1431)
4(1424 1429 1427 1431)
4(1429 1430 1424 1428)
4(1427 1429 1424 1428)
4(1082 75 1432 1084)
4(1082 1035 1083 1434)
4(1083 1025 1084 1433)
4(1432 1398 1434 1433)
4(1083 1433 1432 1434)
4(1083 1432 1082 1434)
4(1432 1433 1083 1084)
4(1082 1432 1083 1084)
4(1435 725 1437 778)
4(1435 1035 1436 1434)
4(1436 746 778 1438)
4(1437 1398 1434 1438)
4(1436 1438 1437 1434)
4(1436 1437 1435 1434)
4(1437 1438 1436 778)
4(1435 1437 1436 778)
4(1439 1100 1430 1428)
4(1439 549 588 1440)
4(588 551 1428 1429)
4(1430 1405 1440 1429)
4(588 1429 1430 1440)
4(588 1430 1439 1440)
4(1430 1429 588 1428)
4(1439 1430 588 1428)
4(1441 1025 1442 1083)
4(1441 745 1415 1417)
4(1415 1035 1083 1416)
4(1442 1394 1417 1416)
4(1415 1416 1442 1417)
4(1415 1442 1441 1417)
4(1442 1416 1415 1083)
4(1441 1442 1415 1083)
4(1118 1100 1445 1444)
4(1118 1093 1443 1447)
4(1443 1377 1444 1446)
4(1445 1396 1447 1446)
4(1443 1446 1445 1447)
4(1443 1445 1118 1447)
4(1445 1446 1443 1444)
4(1118 1445 1443 1444)
4(1438 746 1448 1436)
4(1438 1398 1434 1450)
4(1434 1035 1436 1449)
4(1448 1401 1450 1449)
4(1434 1449 1448 1450)
4(1434 1448 1438 1450)
4(1448 1449 1434 1436)
4(1438 1448 1434 1436)
4(1423 1097 1451 1114)
4(1423 575 1421 1452)
4(1421 1100 1114 1444)
4(1451 1377 1452 1444)
4(1421 1444 1451 1452)
4(1421 1451 1423 1452)
4(1451 1444 1421 1114)
4(1423 1451 1421 1114)
4(592 551 1427 1428)
4(592 575 1421 1426)
4(1421 1100 1428 1424)
4(1427 1383 1426 1424)
4(1421 1424 1427 1426)
4(1421 1427 592 1426)
4(1427 1424 1421 1428)
4(592 1427 1421 1428)
4(1453 1093 1447 1443)
4(1453 1389 1454 1455)
4(1454 1377 1443 1446)
4(1447 1396 1455 1446)
4(1454 1446 1447 1455)
4(1454 1447 1453 1455)
4(1447 1446 1454 1443)
4(1453 1447 1454 1443)
4(1456 725 1437 1435)
4(1456 1025 1083 1433)
4(1083 1035 1435 1434)
4(1437 1398 1433 1434)
4(1083 1434 1437 1433)
4(1083 1437 1456 1433)
4(1437 1434 1083 1435)
4(1456 1437 1083 1435)
4(1457 963 1460 1459)
4(1457 1369 1458 1462)
4(1458 1364 1459 1461)
4(1460 1390 1462 1461)
4(1458 1461 1460 1462)
4(1458 1460 1457 1462)
4(1460 1461 1458 1459)
4(1457 1460 1458 1459)
4(1463 562 1465 1464)
4(1463 1100 1444 1445)
4(1444 1377 1464 1446)
4(1465 1396 1445 1446)
4(1444 1446 1465 1445)
4(1444 1465 1463 1445)
4(1465 1446 1444 1464)
4(1463 1465 1444 1464)
4(1115 1094 1422 1467)
4(1115 1097 1466 1423)
4(1466 1168 1467 1468)
4(1422 575 1423 1468)
4(1466 1468 1422 1423)
4(1466 1422 1115 1423)
4(1422 1468 1466 1467)
4(1115 1422 1466 1467)
4(1469 725 1437 1471)
4(1469 1390 1470 1472)
4(1470 75 1471 1432)
4(1437 1398 1472 1432)
4(1470 1432 1437 1472)
4(1470 1437 1469 1472)
4(1437 1432 1470 1471)
4(1469 1437 1470 1471)
4(854 745 1415 763)
4(854 746 778 1436)
4(778 725 763 1435)
4(1415 1035 1436 1435)
4(778 1435 1415 1436)
4(778 1415 854 1436)
4(1415 1435 778 763)
4(854 1415 778 763)
4(1421 1100 1444 1439)
4(1421 575 593 1452)
4(593 549 1439 1473)
4(1444 1377 1452 1473)
4(593 1473 1444 1452)
4(593 1444 1421 1452)
4(1444 1473 593 1439)
4(1421 1444 593 1439)
4(1474 571 1477 1476)
4(1474 1404 1475 1479)
4(1475 1392 1476 1478)
4(1477 1405 1479 1478)
4(1475 1478 1477 1479)
4(1475 1477 1474 1479)
4(1477 1478 1475 1476)
4(1474 1477 1475 1476)
4(1459 963 1460 1018)
4(1459 1364 1480 1461)
4(1480 75 1018 1470)
4(1460 1390 1461 1470)
4(1480 1470 1460 1461)
4(1480 1460 1459 1461)
4(1460 1470 1480 1018)
4(1459 1460 1480 1018)
4(1441 745 1417 762)
4(1441 1025 1481 1442)
4(1481 714 762 1482)
4(1417 1394 1442 1482)
4(1481 1482 1417 1442)
4(1481 1417 1441 1442)
4(1417 1482 1481 762)
4(1441 1417 1481 762)
4(1483 149 1485 349)
4(1483 1366 1484 1487)
4(1484 234 349 1486)
4(1485 1384 1487 1486)
4(1484 1486 1485 1487)
4(1484 1485 1483 1487)
4(1485 1486 1484 349)
4(1483 1485 1484 349)
4(586 562 1488 1464)
4(586 549 1473 1440)
4(1473 1377 1464 1489)
4(1488 1405 1440 1489)
4(1473 1489 1488 1440)
4(1473 1488 586 1440)
4(1488 1489 1473 1464)
4(586 1488 1473 1464)
4(1439 549 593 588)
4(1439 1100 1428 1421)
4(1428 551 588 592)
4(593 575 1421 592)
4(1428 592 593 1421)
4(1428 593 1439 1421)
4(593 592 1428 588)
4(1439 593 1428 588)
4(1475 1392 1478 1491)
4(1475 1404 1490 1479)
4(1490 1099 1491 1492)
4(1478 1405 1479 1492)
4(1490 1492 1478 1479)
4(1490 1478 1475 1479)
4(1478 1492 1490 1491)
4(1475 1478 1490 1491)
4(854 745 1493 1415)
4(854 746 1436 1448)
4(1436 1035 1415 1449)
4(1493 1401 1448 1449)
4(1436 1449 1493 1448)
4(1436 1493 854 1448)
4(1493 1449 1436 1415)
4(854 1493 1436 1415)
4(1422 1094 1425 1467)
4(1422 575 1468 1426)
4(1468 1168 1467 1494)
4(1425 1383 1426 1494)
4(1468 1494 1425 1426)
4(1468 1425 1422 1426)
4(1425 1494 1468 1467)
4(1422 1425 1468 1467)
4(1495 396 1497 422)
4(1495 1213 1496 1499)
4(1496 383 422 1498)
4(1497 1403 1499 1498)
4(1496 1498 1497 1499)
4(1496 1497 1495 1499)
4(1497 1498 1496 422)
4(1495 1497 1496 422)
4(763 745 1415 1441)
4(763 725 1456 1435)
4(1456 1025 1441 1083)
4(1415 1035 1435 1083)
4(1456 1083 1415 1435)
4(1456 1415 763 1435)
4(1415 1083 1456 1441)
4(763 1415 1456 1441)
4(1500 1098 1501 1122)
4(1500 1396 1445 1502)
4(1445 1100 1122 1430)
4(1501 1405 1502 1430)
4(1445 1430 1501 1502)
4(1445 1501 1500 1502)
4(1501 1430 1445 1122)
4(1500 1501 1445 1122)
4(1456 725 1469 1471)
4(1456 1025 1084 1503)
4(1084 75 1471 1470)
4(1469 1390 1503 1470)
4(1084 1470 1469 1503)
4(1084 1469 1456 1503)
4(1469 1470 1084 1471)
4(1456 1469 1084 1471)
4(1504 47 1507 1506)
4(1504 1379 1505 1508)
4(1505 1366 1506 1487)
4(1507 1384 1508 1487)
4(1505 1487 1507 1508)
4(1505 1507 1504 1508)
4(1507 1487 1505 1506)
4(1504 1507 1505 1506)
4(1471 725 1437 1456)
4(1471 75 1084 1432)
4(1084 1025 1456 1433)
4(1437 1398 1432 1433)
4(1084 1433 1437 1432)
4(1084 1437 1471 1432)
4(1437 1433 1084 1456)
4(1471 1437 1084 1456)
4(1464 562 1488 1463)
4(1464 1377 1444 1489)
4(1444 1100 1463 1430)
4(1488 1405 1489 1430)
4(1444 1430 1488 1489)
4(1444 1488 1464 1489)
4(1488 1430 1444 1463)
4(1464 1488 1444 1463)
4(1509 1166 1512 1511)
4(1509 1383 1510 1514)
4(1510 580 1511 1513)
4(1512 1400 1514 1513)
4(1510 1513 1512 1514)
4(1510 1512 1509 1514)
4(1512 1513 1510 1511)
4(1509 1512 1510 1511)
4(1515 1102 1518 1517)
4(1515 1383 1516 1514)
4(1516 1171 1517 1519)
4(1518 1400 1514 1519)
4(1516 1519 1518 1514)
4(1516 1518 1515 1514)
4(1518 1519 1516 1517)
4(1515 1518 1516 1517)
4(1520 1104 1522 1521)
4(1520 1377 1454 1524)
4(1454 1389 1521 1523)
4(1522 1411 1524 1523)
4(1454 1523 1522 1524)
4(1454 1522 1520 1524)
4(1522 1523 1454 1521)
4(1520 1522 1454 1521)
4(1464 562 1465 1525)
4(1464 1377 1454 1446)
4(1454 1389 1525 1455)
4(1465 1396 1446 1455)
4(1454 1455 1465 1446)
4(1454 1465 1464 1446)
4(1465 1455 1454 1525)
4(1464 1465 1454 1525)
4(1122 1100 1445 1118)
4(1122 1098 1121 1500)
4(1121 1093 1118 1447)
4(1445 1396 1500 1447)
4(1121 1447 1445 1500)
4(1121 1445 1122 1500)
4(1445 1447 1121 1118)
4(1122 1445 1121 1118)
4(1526 881 1529 1528)
4(1526 1404 1527 1531)
4(1527 411 1528 1530)
4(1529 1407 1531 1530)
4(1527 1530 1529 1531)
4(1527 1529 1526 1531)
4(1529 1530 1527 1528)
4(1526 1529 1527 1528)
4(1463 562 1488 1465)
4(1463 1100 1445 1430)
4(1445 1396 1465 1502)
4(1488 1405 1430 1502)
4(1445 1502 1488 1430)
4(1445 1488 1463 1430)
4(1488 1502 1445 1465)
4(1463 1488 1445 1465)
4(1493 745 1418 1415)
4(1493 1401 1449 1532)
4(1449 1035 1415 1420)
4(1418 1410 1532 1420)
4(1449 1420 1418 1532)
4(1449 1418 1493 1532)
4(1418 1420 1449 1415)
4(1493 1418 1449 1415)
4(1444 1100 1430 1439)
4(1444 1377 1473 1489)
4(1473 549 1439 1440)
4(1430 1405 1489 1440)
4(1473 1440 1430 1489)
4(1473 1430 1444 1489)
4(1430 1440 1473 1439)
4(1444 1430 1473 1439)
4(1474 571 1534 1533)
4(1474 1404 1490 1536)
4(1490 1099 1533 1535)
4(1534 1408 1536 1535)
4(1490 1535 1534 1536)
4(1490 1534 1474 1536)
4(1534 1535 1490 1533)
4(1474 1534 1490 1533)
4(1470 75 1432 1480)
4(1470 1390 1461 1472)
4(1461 1364 1480 1537)
4(1432 1398 1472 1537)
4(1461 1537 1432 1472)
4(1461 1432 1470 1472)
4(1432 1537 1461 1480)
4(1470 1432 1461 1480)
4(1538 238 1540 1539)
4(1538 1364 1461 1537)
4(1461 1390 1539 1472)
4(1540 1398 1537 1472)
4(1461 1472 1540 1537)
4(1461 1540 1538 1537)
4(1540 1472 1461 1539)
4(1538 1540 1461 1539)
4(1533 571 1477 1474)
4(1533 1099 1490 1492)
4(1490 1404 1474 1479)
4(1477 1405 1492 1479)
4(1490 1479 1477 1492)
4(1490 1477 1533 1492)
4(1477 1479 1490 1474)
4(1533 1477 1490 1474)
4(1541 1165 1543 1542)
4(1541 575 1423 1452)
4(1423 1097 1542 1451)
4(1543 1377 1452 1451)
4(1423 1451 1543 1452)
4(1423 1543 1541 1452)
4(1543 1451 1423 1542)
4(1541 1543 1423 1542)
4(1503 1025 1544 1456)
4(1503 1390 1469 1546)
4(1469 725 1456 1545)
4(1544 1402 1546 1545)
4(1469 1545 1544 1546)
4(1469 1544 1503 1546)
4(1544 1545 1469 1456)
4(1503 1544 1469 1456)
4(1547 206 1549 1548)
4(1547 1366 1483 1487)
4(1483 149 1548 1485)
4(1549 1384 1487 1485)
4(1483 1485 1549 1487)
4(1483 1549 1547 1487)
4(1549 1485 1483 1548)
4(1547 1549 1483 1548)
4(1115 1097 1542 1466)
4(1115 1094 1467 1550)
4(1467 1168 1466 1193)
4(1542 1165 1550 1193)
4(1467 1193 1542 1550)
4(1467 1542 1115 1550)
4(1542 1193 1467 1466)
4(1115 1542 1467 1466)
4(1551 885 1554 1553)
4(1551 1219 1552 1556)
4(1552 1382 1553 1555)
4(1554 1403 1556 1555)
4(1552 1555 1554 1556)
4(1552 1554 1551 1556)
4(1554 1555 1552 1553)
4(1551 1554 1552 1553)
4(1505 1366 1487 1484)
4(1505 1379 1557 1508)
4(1557 234 1484 1486)
4(1487 1384 1508 1486)
4(1557 1486 1487 1508)
4(1557 1487 1505 1508)
4(1487 1486 1557 1484)
4(1505 1487 1557 1484)
4(1558 383 1560 1496)
4(1558 880 1559 1562)
4(1559 1213 1496 1561)
4(1560 1400 1562 1561)
4(1559 1561 1560 1562)
4(1559 1560 1558 1562)
4(1560 1561 1559 1496)
4(1558 1560 1559 1496)
4(1563 554 1565 1564)
4(1563 1389 1454 1523)
4(1454 1377 1564 1524)
4(1565 1411 1523 1524)
4(1454 1524 1565 1523)
4(1454 1565 1563 1523)
4(1565 1524 1454 1564)
4(1563 1565 1454 1564)
4(1566 1104 1522 1520)
4(1566 1164 1567 1568)
4(1567 1377 1520 1524)
4(1522 1411 1568 1524)
4(1567 1524 1522 1568)
4(1567 1522 1566 1568)
4(1522 1524 1567 1520)
4(1566 1522 1567 1520)
4(763 745 1441 762)
4(763 725 758 1456)
4(758 714 762 1481)
4(1441 1025 1456 1481)
4(758 1481 1441 1456)
4(758 1441 763 1456)
4(1441 1481 758 762)
4(763 1441 758 762)
4(1569 1102 1518 1515)
4(1569 1392 1570 1571)
4(1570 1383 1515 1514)
4(1518 1400 1571 1514)
4(1570 1514 1518 1571)
4(1570 1518 1569 1571)
4(1518 1514 1570 1515)
4(1569 1518 1570 1515)
4(1496 383 1498 1558)
4(1496 1213 1559 1499)
4(1559 880 1558 1572)
4(1498 1403 1499 1572)
4(1559 1572 1498 1499)
4(1559 1498 1496 1499)
4(1498 1572 1559 1558)
4(1496 1498 1559 1558)
4(1573 411 1530 1528)
4(1573 1406 1574 1575)
4(1574 881 1528 1529)
4(1530 1407 1575 1529)
4(1574 1529 1530 1575)
4(1574 1530 1573 1575)
4(1530 1529 1574 1528)
4(1573 1530 1574 1528)
4(1576 1269 1578 1577)
4(1576 952 972 1580)
4(972 954 1577 1579)
4(1578 1365 1580 1579)
4(972 1579 1578 1580)
4(972 1578 1576 1580)
4(1578 1579 972 1577)
4(1576 1578 972 1577)
4(1492 1099 1535 1533)
4(1492 1405 1477 1581)
4(1477 571 1533 1534)
4(1535 1408 1581 1534)
4(1477 1534 1535 1581)
4(1477 1535 1492 1581)
4(1535 1534 1477 1533)
4(1492 1535 1477 1533)
4(1539 238 1540 280)
4(1539 1390 1582 1472)
4(1582 190 280 1583)
4(1540 1398 1472 1583)
4(1582 1583 1540 1472)
4(1582 1540 1539 1472)
4(1540 1583 1582 280)
4(1539 1540 1582 280)
4(1584 1388 1587 1586)
4(1584 1394 1585 1589)
4(1585 715 1586 1588)
4(1587 1402 1589 1588)
4(1585 1588 1587 1589)
4(1585 1587 1584 1589)
4(1587 1588 1585 1586)
4(1584 1587 1585 1586)
4(1590 567 1592 1591)
4(1590 1377 1567 1524)
4(1567 1164 1591 1568)
4(1592 1411 1524 1568)
4(1567 1568 1592 1524)
4(1567 1592 1590 1524)
4(1592 1568 1567 1591)
4(1590 1592 1567 1591)
4(1562 880 1593 1558)
4(1562 1400 1560 1595)
4(1560 383 1558 1594)
4(1593 1414 1595 1594)
4(1560 1594 1593 1595)
4(1560 1593 1562 1595)
4(1593 1594 1560 1558)
4(1562 1593 1560 1558)
4(1538 238 1539 1596)
4(1538 1364 1458 1461)
4(1458 1369 1596 1462)
4(1539 1390 1461 1462)
4(1458 1462 1539 1461)
4(1458 1539 1538 1461)
4(1539 1462 1458 1596)
4(1538 1539 1458 1596)
4(1566 1104 1520 1133)
4(1566 1164 1597 1567)
4(1597 1095 1133 1598)
4(1520 1377 1567 1598)
4(1597 1598 1520 1567)
4(1597 1520 1566 1567)
4(1520 1598 1597 1133)
4(1566 1520 1597 1133)
4(1466 1168 1468 1193)
4(1466 1097 1542 1423)
4(1542 1165 1193 1541)
4(1468 575 1423 1541)
4(1542 1541 1468 1423)
4(1542 1468 1466 1423)
4(1468 1541 1542 1193)
4(1466 1468 1542 1193)
4(1506 47 1507 1599)
4(1506 1366 1547 1487)
4(1547 206 1599 1549)
4(1507 1384 1487 1549)
4(1547 1549 1507 1487)
4(1547 1507 1506 1487)
4(1507 1549 1547 1599)
4(1506 1507 1547 1599)
4(1551 885 1553 939)
4(1551 1219 1600 1552)
4(1600 879 939 1601)
4(1553 1382 1552 1601)
4(1600 1601 1553 1552)
4(1600 1553 1551 1552)
4(1553 1601 1600 939)
4(1551 1553 1600 939)
4(1481 714 1602 758)
4(1481 1025 1456 1544)
4(1456 725 758 1545)
4(1602 1402 1544 1545)
4(1456 1545 1602 1544)
4(1456 1602 1481 1544)
4(1602 1545 1456 758)
4(1481 1602 1456 758)
4(1599 47 1507 999)
4(1599 206 1603 1549)
4(1603 965 999 1604)
4(1507 1384 1549 1604)
4(1603 1604 1507 1549)
4(1603 1507 1599 1549)
4(1507 1604 1603 999)
4(1599 1507 1603 999)
4(1482 714 1602 1481)
4(1482 1394 1442 1589)
4(1442 1025 1481 1544)
4(1602 1402 1589 1544)
4(1442 1544 1602 1589)
4(1442 1602 1482 1589)
4(1602 1544 1442 1481)
4(1482 1602 1442 1481)
4(1527 411 1605 1528)
4(1527 1404 1526 1607)
4(1526 881 1528 1606)
4(1605 1414 1607 1606)
4(1526 1606 1605 1607)
4(1526 1605 1527 1607)
4(1605 1606 1526 1528)
4(1527 1605 1526 1528)
4(1608 952 1610 985)
4(1608 1264 1609 1612)
4(1609 960 985 1611)
4(1610 1363 1612 1611)
4(1609 1611 1610 1612)
4(1609 1610 1608 1612)
4(1610 1611 1609 985)
4(1608 1610 1609 985)
4(1577 1269 1578 1614)
4(1577 954 1613 1579)
4(1613 242 1614 1615)
4(1578 1365 1579 1615)
4(1613 1615 1578 1579)
4(1613 1578 1577 1579)
4(1578 1615 1613 1614)
4(1577 1578 1613 1614)
4(694 572 1617 1616)
4(694 580 1510 1513)
4(1510 1383 1616 1514)
4(1617 1400 1513 1514)
4(1510 1514 1617 1513)
4(1510 1617 694 1513)
4(1617 1514 1510 1616)
4(694 1617 1510 1616)
4(1564 554 1565 595)
4(1564 1377 1590 1524)
4(1590 567 595 1592)
4(1565 1411 1524 1592)
4(1590 1592 1565 1524)
4(1590 1565 1564 1524)
4(1565 1592 1590 595)
4(1564 1565 1590 595)
4(1618 1313 1621 1620)
4(1618 1409 1619 1623)
4(1619 719 1620 1622)
4(1621 1410 1623 1622)
4(1619 1622 1621 1623)
4(1619 1621 1618 1623)
4(1621 1622 1619 1620)
4(1618 1621 1619 1620)
4(1491 1099 1490 1159)
4(1491 1392 1624 1475)
4(1624 66 1159 1625)
4(1490 1404 1475 1625)
4(1624 1625 1490 1475)
4(1624 1490 1491 1475)
4(1490 1625 1624 1159)
4(1491 1490 1624 1159)
4(773 725 1437 1469)
4(773 190 1582 1583)
4(1582 1390 1469 1472)
4(1437 1398 1583 1472)
4(1582 1472 1437 1583)
4(1582 1437 773 1583)
4(1437 1472 1582 1469)
4(773 1437 1582 1469)
4(1496 383 1560 419)
4(1496 1213 1626 1561)
4(1626 386 419 1627)
4(1560 1400 1561 1627)
4(1626 1627 1560 1561)
4(1626 1560 1496 1561)
4(1560 1627 1626 419)
4(1496 1560 1626 419)
4(1628 1265 1629 1299)
4(1628 242 1614 1613)
4(1614 1269 1299 1577)
4(1629 954 1613 1577)
4(1614 1577 1629 1613)
4(1614 1629 1628 1613)
4(1629 1577 1614 1299)
4(1628 1629 1614 1299)
4(1630 401 1633 1632)
4(1630 1386 1631 1635)
4(1631 1368 1632 1634)
4(1633 1399 1635 1634)
4(1631 1634 1633 1635)
4(1631 1633 1630 1635)
4(1633 1634 1631 1632)
4(1630 1633 1631 1632)
4(1574 881 1606 1528)
4(1574 1406 1573 1636)
4(1573 411 1528 1605)
4(1606 1414 1636 1605)
4(1573 1605 1606 1636)
4(1573 1606 1574 1636)
4(1606 1605 1573 1528)
4(1574 1606 1573 1528)
4(1637 404 1639 1638)
4(1637 1382 1552 1555)
4(1552 1219 1638 1556)
4(1639 1403 1555 1556)
4(1552 1556 1639 1555)
4(1552 1639 1637 1555)
4(1639 1556 1552 1638)
4(1637 1639 1552 1638)
4(1498 383 1594 1558)
4(1498 1403 1572 1640)
4(1572 880 1558 1593)
4(1594 1414 1640 1593)
4(1572 1593 1594 1640)
4(1572 1594 1498 1640)
4(1594 1593 1572 1558)
4(1498 1594 1572 1558)
4(1641 1395 1644 1643)
4(1641 1404 1642 1536)
4(1642 176 1643 1645)
4(1644 1408 1536 1645)
4(1642 1645 1644 1536)
4(1642 1644 1641 1536)
4(1644 1645 1642 1643)
4(1641 1644 1642 1643)
4(1311 206 1549 1603)
4(1311 1271 1646 1647)
4(1646 965 1603 1604)
4(1549 1384 1647 1604)
4(1646 1604 1549 1647)
4(1646 1549 1311 1647)
4(1549 1604 1646 1603)
4(1311 1549 1646 1603)
4(586 562 1464 591)
4(586 549 590 1473)
4(590 582 591 1648)
4(1464 1377 1473 1648)
4(590 1648 1464 1473)
4(590 1464 586 1473)
4(1464 1648 590 591)
4(586 1464 590 591)
4(1585 715 1588 755)
4(1585 1394 1482 1589)
4(1482 714 755 1602)
4(1588 1402 1589 1602)
4(1482 1602 1588 1589)
4(1482 1588 1585 1589)
4(1588 1602 1482 755)
4(1585 1588 1482 755)
4(371 242 1615 1614)
4(371 237 1649 1650)
4(1649 1269 1614 1578)
4(1615 1365 1650 1578)
4(1649 1578 1615 1650)
4(1649 1615 371 1650)
4(1615 1578 1649 1614)
4(371 1615 1649 1614)
4(1651 885 1554 1551)
4(1651 1215 1228 1652)
4(1228 1219 1551 1556)
4(1554 1403 1652 1556)
4(1228 1556 1554 1652)
4(1228 1554 1651 1652)
4(1554 1556 1228 1551)
4(1651 1554 1228 1551)
4(1516 1171 1519 1209)
4(1516 1383 1653 1514)
4(1653 209 1209 1654)
4(1519 1400 1514 1654)
4(1653 1654 1519 1514)
4(1653 1519 1516 1514)
4(1519 1654 1653 1209)
4(1516 1519 1653 1209)
4(1655 1027 1657 1656)
4(1655 1394 1584 1589)
4(1584 1388 1656 1587)
4(1657 1402 1589 1587)
4(1584 1587 1657 1589)
4(1584 1657 1655 1589)
4(1657 1587 1584 1656)
4(1655 1657 1584 1656)
4(1613 242 1658 1628)
4(1613 954 1629 1660)
4(1629 1265 1628 1659)
4(1658 1413 1660 1659)
4(1629 1659 1658 1660)
4(1629 1658 1613 1660)
4(1658 1659 1629 1628)
4(1613 1658 1629 1628)
4(1521 1104 1522 1662)
4(1521 1389 1661 1523)
4(1661 1370 1662 1663)
4(1522 1411 1523 1663)
4(1661 1663 1522 1523)
4(1661 1522 1521 1523)
4(1522 1663 1661 1662)
4(1521 1522 1661 1662)
4(698 571 1534 1474)
4(698 176 1642 1645)
4(1642 1404 1474 1536)
4(1534 1408 1645 1536)
4(1642 1536 1534 1645)
4(1642 1534 698 1645)
4(1534 1536 1642 1474)
4(698 1534 1642 1474)
4(1628 1265 1299 1664)
4(1628 242 379 1614)
4(379 241 1664 1665)
4(1299 1269 1614 1665)
4(379 1665 1299 1614)
4(379 1299 1628 1614)
4(1299 1665 379 1664)
4(1628 1299 379 1664)
4(1548 206 1667 1666)
4(1548 149 350 349)
4(350 244 1666 351)
4(1667 234 349 351)
4(350 351 1667 349)
4(350 1667 1548 349)
4(1667 351 350 1666)
4(1548 1667 350 1666)
4(1668 1313 1621 1618)
4(1668 1024 1669 1670)
4(1669 1409 1618 1623)
4(1621 1410 1670 1623)
4(1669 1623 1621 1670)
4(1669 1621 1668 1670)
4(1621 1623 1669 1618)
4(1668 1621 1669 1618)
4(756 723 1672 1671)
4(756 715 1586 1585)
4(1586 1388 1671 1584)
4(1672 1394 1585 1584)
4(1586 1584 1672 1585)
4(1586 1672 756 1585)
4(1672 1584 1586 1671)
4(756 1672 1586 1671)
4(1673 388 1676 1675)
4(1673 1366 1674 1678)
4(1674 1216 1675 1677)
4(1676 1382 1678 1677)
4(1674 1677 1676 1678)
4(1674 1676 1673 1678)
4(1676 1677 1674 1675)
4(1673 1676 1674 1675)
4(1679 579 1680 600)
4(1679 1164 1591 1567)
4(1591 567 600 1590)
4(1680 1377 1567 1590)
4(1591 1590 1680 1567)
4(1591 1680 1679 1567)
4(1680 1590 1591 600)
4(1679 1680 1591 600)
4(1608 952 1580 1610)
4(1608 1264 1612 1682)
4(1612 1363 1610 1681)
4(1580 1365 1682 1681)
4(1612 1681 1580 1682)
4(1612 1580 1608 1682)
4(1580 1681 1612 1610)
4(1608 1580 1612 1610)
4(1490 1099 1535 1683)
4(1490 1404 1641 1536)
4(1641 1395 1683 1644)
4(1535 1408 1536 1644)
4(1641 1644 1535 1536)
4(1641 1535 1490 1536)
4(1535 1644 1641 1683)
4(1490 1535 1641 1683)
4(1616 572 1617 1684)
4(1616 1383 1570 1514)
4(1570 1392 1684 1571)
4(1617 1400 1514 1571)
4(1570 1571 1617 1514)
4(1570 1617 1616 1514)
4(1617 1571 1570 1684)
4(1616 1617 1570 1684)
4(1620 1313 1621 1685)
4(1620 719 801 1622)
4(801 730 1685 1686)
4(1621 1410 1622 1686)
4(801 1686 1621 1622)
4(801 1621 1620 1622)
4(1621 1686 801 1685)
4(1620 1621 801 1685)
4(1631 1368 1634 1688)
4(1631 1386 1687 1635)
4(1687 891 1688 1689)
4(1634 1399 1635 1689)
4(1687 1689 1634 1635)
4(1687 1634 1631 1635)
4(1634 1689 1687 1688)
4(1631 1634 1687 1688)
4(1661 1370 1663 1690)
4(1661 1389 1563 1523)
4(1563 554 1690 1565)
4(1663 1411 1523 1565)
4(1563 1565 1663 1523)
4(1563 1663 1661 1523)
4(1663 1565 1563 1690)
4(1661 1663 1563 1690)
4(1608 1264 1682 1303)
4(1608 952 1576 1580)
4(1576 1269 1303 1578)
4(1682 1365 1580 1578)
4(1576 1578 1682 1580)
4(1576 1682 1608 1580)
4(1682 1578 1576 1303)
4(1608 1682 1576 1303)
4(1691 1105 1692 1151)
4(1691 1370 1662 1661)
4(1662 1104 1151 1521)
4(1692 1389 1661 1521)
4(1662 1521 1692 1661)
4(1662 1692 1691 1661)
4(1692 1521 1662 1151)
4(1691 1692 1662 1151)
4(1599 47 999 1693)
4(1599 206 1311 1603)
4(1311 1271 1693 1646)
4(999 965 1603 1646)
4(1311 1646 999 1603)
4(1311 999 1599 1603)
4(999 1646 1311 1693)
4(1599 999 1311 1693)
4(1630 401 1694 1633)
4(1630 1386 1635 1696)
4(1635 1399 1633 1695)
4(1694 1407 1696 1695)
4(1635 1695 1694 1696)
4(1635 1694 1630 1696)
4(1694 1695 1635 1633)
4(1630 1694 1635 1633)
4(1697 888 1700 1699)
4(1697 1214 1698 1701)
4(1698 1366 1699 1678)
4(1700 1382 1701 1678)
4(1698 1678 1700 1701)
4(1698 1700 1697 1701)
4(1700 1678 1698 1699)
4(1697 1700 1698 1699)
4(1667 206 1549 1666)
4(1667 234 351 1486)
4(351 244 1666 1702)
4(1549 1384 1486 1702)
4(351 1702 1549 1486)
4(351 1549 1667 1486)
4(1549 1702 351 1666)
4(1667 1549 351 1666)
4(1703 1028 1704 1088)
4(1703 1394 1416 1419)
4(1416 1035 1088 1420)
4(1704 1410 1419 1420)
4(1416 1420 1704 1419)
4(1416 1704 1703 1419)
4(1704 1420 1416 1088)
4(1703 1704 1416 1088)
4(1210 1166 1509 1182)
4(1210 209 1209 1653)
4(1209 1171 1182 1516)
4(1509 1383 1653 1516)
4(1209 1516 1509 1653)
4(1209 1509 1210 1653)
4(1509 1516 1209 1182)
4(1210 1509 1209 1182)
4(1705 1264 1682 1612)
4(1705 221 1706 1707)
4(1706 1363 1612 1681)
4(1682 1365 1707 1681)
4(1706 1681 1682 1707)
4(1706 1682 1705 1707)
4(1682 1681 1706 1612)
4(1705 1682 1706 1612)
4(1708 566 1709 681)
4(1708 1168 1468 1494)
4(1468 575 681 1426)
4(1709 1383 1494 1426)
4(1468 1426 1709 1494)
4(1468 1709 1708 1494)
4(1709 1426 1468 681)
4(1708 1709 1468 681)
4(1158 1102 1518 1569)
4(1158 65 1710 1711)
4(1710 1392 1569 1571)
4(1518 1400 1711 1571)
4(1710 1571 1518 1711)
4(1710 1518 1158 1711)
4(1518 1571 1710 1569)
4(1158 1518 1710 1569)
4(1712 1387 1715 1714)
4(1712 1404 1713 1531)
4(1713 883 1714 1716)
4(1715 1407 1531 1716)
4(1713 1716 1715 1531)
4(1713 1715 1712 1531)
4(1715 1716 1713 1714)
4(1712 1715 1713 1714)
4(1717 953 1719 1718)
4(1717 1365 1681 1721)
4(1681 1363 1718 1720)
4(1719 1398 1721 1720)
4(1681 1720 1719 1721)
4(1681 1719 1717 1721)
4(1719 1720 1681 1718)
4(1717 1719 1681 1718)
4(1722 74 1723 1017)
4(1722 1369 1457 1462)
4(1457 963 1017 1460)
4(1723 1390 1462 1460)
4(1457 1460 1723 1462)
4(1457 1723 1722 1462)
4(1723 1460 1457 1017)
4(1722 1723 1457 1017)
4(1511 1166 1512 1210)
4(1511 580 1724 1513)
4(1724 209 1210 1654)
4(1512 1400 1513 1654)
4(1724 1654 1512 1513)
4(1724 1512 1511 1513)
4(1512 1654 1724 1210)
4(1511 1512 1724 1210)
4(1725 720 1728 1727)
4(1725 1371 1726 1730)
4(1726 1314 1727 1729)
4(1728 1385 1730 1729)
4(1726 1729 1728 1730)
4(1726 1728 1725 1730)
4(1728 1729 1726 1727)
4(1725 1728 1726 1727)
4(1548 206 1549 1667)
4(1548 149 349 1485)
4(349 234 1667 1486)
4(1549 1384 1485 1486)
4(349 1486 1549 1485)
4(349 1549 1548 1485)
4(1549 1486 349 1667)
4(1548 1549 349 1667)
4(1236 1214 1701 1698)
4(1236 1216 1674 1677)
4(1674 1366 1698 1678)
4(1701 1382 1677 1678)
4(1674 1678 1701 1677)
4(1674 1701 1236 1677)
4(1701 1678 1674 1698)
4(1236 1701 1674 1698)
4(600 579 1680 601)
4(600 567 595 1590)
4(595 554 601 1564)
4(1680 1377 1590 1564)
4(595 1564 1680 1590)
4(595 1680 600 1590)
4(1680 1564 595 601)
4(600 1680 595 601)
4(681 566 1709 673)
4(681 575 592 1426)
4(592 551 673 1427)
4(1709 1383 1426 1427)
4(592 1427 1709 1426)
4(592 1709 681 1426)
4(1709 1427 592 673)
4(681 1709 592 673)
4(924 888 1700 1697)
4(924 879 1731 1601)
4(1731 1214 1697 1701)
4(1700 1382 1601 1701)
4(1731 1701 1700 1601)
4(1731 1700 924 1601)
4(1700 1701 1731 1697)
4(924 1700 1731 1697)
4(1685 1313 1621 1733)
4(1685 730 1732 1686)
4(1732 1393 1733 1734)
4(1621 1410 1686 1734)
4(1732 1734 1621 1686)
4(1732 1621 1685 1686)
4(1621 1734 1732 1733)
4(1685 1621 1732 1733)
4(1210 1166 1512 1509)
4(1210 209 1653 1654)
4(1653 1383 1509 1514)
4(1512 1400 1654 1514)
4(1653 1514 1512 1654)
4(1653 1512 1210 1654)
4(1512 1514 1653 1509)
4(1210 1512 1653 1509)
4(1735 396 1497 1495)
4(1735 1218 1241 1736)
4(1241 1213 1495 1499)
4(1497 1403 1736 1499)
4(1241 1499 1497 1736)
4(1241 1497 1735 1736)
4(1497 1499 1241 1495)
4(1735 1497 1241 1495)
4(1305 1264 1612 1609)
4(1305 1267 1737 1738)
4(1737 960 1609 1611)
4(1612 1363 1738 1611)
4(1737 1611 1612 1738)
4(1737 1612 1305 1738)
4(1612 1611 1737 1609)
4(1305 1612 1737 1609)
4(1672 723 1739 1671)
4(1672 1394 1584 1741)
4(1584 1388 1671 1740)
4(1739 1412 1741 1740)
4(1584 1740 1739 1741)
4(1584 1739 1672 1741)
4(1739 1740 1584 1671)
4(1672 1739 1584 1671)
4(1108 1101 1744 1743)
4(1108 56 1742 1746)
4(1742 1367 1743 1745)
4(1744 1376 1746 1745)
4(1742 1745 1744 1746)
4(1742 1744 1108 1746)
4(1744 1745 1742 1743)
4(1108 1744 1742 1743)
4(1726 1314 1729 1748)
4(1726 1371 1747 1730)
4(1747 1026 1748 1749)
4(1729 1385 1730 1749)
4(1747 1749 1729 1730)
4(1747 1729 1726 1730)
4(1729 1749 1747 1748)
4(1726 1729 1747 1748)
4(1750 1033 1751 1077)
4(1750 1409 1669 1623)
4(1669 1024 1077 1670)
4(1751 1410 1623 1670)
4(1669 1670 1751 1623)
4(1669 1751 1750 1623)
4(1751 1670 1669 1077)
4(1750 1751 1669 1077)
4(1467 1094 1425 1752)
4(1467 1168 1174 1494)
4(1174 1163 1752 1753)
4(1425 1383 1494 1753)
4(1174 1753 1425 1494)
4(1174 1425 1467 1494)
4(1425 1753 1174 1752)
4(1467 1425 1174 1752)
4(1615 242 1658 1613)
4(1615 1365 1579 1754)
4(1579 954 1613 1660)
4(1658 1413 1754 1660)
4(1579 1660 1658 1754)
4(1579 1658 1615 1754)
4(1658 1660 1579 1613)
4(1615 1658 1579 1613)
4(1755 1317 1756 1348)
4(1755 719 1620 1619)
4(1620 1313 1348 1618)
4(1756 1409 1619 1618)
4(1620 1618 1756 1619)
4(1620 1756 1755 1619)
4(1756 1618 1620 1348)
4(1755 1756 1620 1348)
4(1687 1386 1696 1635)
4(1687 891 1689 1757)
4(1689 1399 1635 1695)
4(1696 1407 1757 1695)
4(1689 1695 1696 1757)
4(1689 1696 1687 1757)
4(1696 1695 1689 1635)
4(1687 1696 1689 1635)
4(1758 892 1759 906)
4(1758 1213 1559 1561)
4(1559 880 906 1562)
4(1759 1400 1561 1562)
4(1559 1562 1759 1561)
4(1559 1759 1758 1561)
4(1759 1562 1559 906)
4(1758 1759 1559 906)
4(476 404 1637 1638)
4(476 393 1760 1761)
4(1760 1219 1638 1552)
4(1637 1382 1761 1552)
4(1760 1552 1637 1761)
4(1760 1637 476 1761)
4(1637 1552 1760 1638)
4(476 1637 1760 1638)
4(1733 1313 1621 1668)
4(1733 1393 1762 1734)
4(1762 1024 1668 1670)
4(1621 1410 1734 1670)
4(1762 1670 1621 1734)
4(1762 1621 1733 1734)
4(1621 1670 1762 1668)
4(1733 1621 1762 1668)
4(422 383 1496 419)
4(422 396 423 1495)
4(423 386 419 1626)
4(1496 1213 1495 1626)
4(423 1626 1496 1495)
4(423 1496 422 1495)
4(1496 1626 423 419)
4(422 1496 423 419)
4(1763 225 1766 1765)
4(1763 1365 1764 1721)
4(1764 1364 1765 1537)
4(1766 1398 1721 1537)
4(1764 1537 1766 1721)
4(1764 1766 1763 1721)
4(1766 1537 1764 1765)
4(1763 1766 1764 1765)
4(1718 953 1719 1022)
4(1718 1363 1767 1720)
4(1767 76 1022 1768)
4(1719 1398 1720 1768)
4(1767 1768 1719 1720)
4(1767 1719 1718 1720)
4(1719 1768 1767 1022)
4(1718 1719 1767 1022)
4(537 381 1770 1769)
4(537 411 1527 1530)
4(1527 1404 1769 1531)
4(1770 1407 1530 1531)
4(1527 1531 1770 1530)
4(1527 1770 537 1530)
4(1770 1531 1527 1769)
4(537 1770 1527 1769)
4(538 411 1530 1573)
4(538 389 1771 1772)
4(1771 1406 1573 1575)
4(1530 1407 1772 1575)
4(1771 1575 1530 1772)
4(1771 1530 538 1772)
4(1530 1575 1771 1573)
4(538 1530 1771 1573)
4(1737 960 1611 1773)
4(1737 1267 1309 1738)
4(1309 1270 1773 1774)
4(1611 1363 1738 1774)
4(1309 1774 1611 1738)
4(1309 1611 1737 1738)
4(1611 1774 1309 1773)
4(1737 1611 1309 1773)
4(1502 1396 1775 1500)
4(1502 1405 1501 1581)
4(1501 1098 1500 1776)
4(1775 1408 1581 1776)
4(1501 1776 1775 1581)
4(1501 1775 1502 1581)
4(1775 1776 1501 1500)
4(1502 1775 1501 1500)
4(1777 1265 1659 1664)
4(1777 248 264 1779)
4(264 241 1664 1778)
4(1659 1413 1779 1778)
4(264 1778 1659 1779)
4(264 1659 1777 1779)
4(1659 1778 264 1664)
4(1777 1659 264 1664)
4(1780 227 1783 1782)
4(1780 1374 1781 1784)
4(1781 1365 1782 1754)
4(1783 1413 1784 1754)
4(1781 1754 1783 1784)
4(1781 1783 1780 1784)
4(1783 1754 1781 1782)
4(1780 1783 1781 1782)
4(1785 237 1650 1649)
4(1785 1264 1303 1682)
4(1303 1269 1649 1578)
4(1650 1365 1682 1578)
4(1303 1578 1650 1682)
4(1303 1650 1785 1682)
4(1650 1578 1303 1649)
4(1785 1650 1303 1649)
4(1638 404 1639 1786)
4(1638 1219 1228 1556)
4(1228 1215 1786 1652)
4(1639 1403 1556 1652)
4(1228 1652 1639 1556)
4(1228 1639 1638 1556)
4(1639 1652 1228 1786)
4(1638 1639 1228 1786)
4(1517 1102 1518 1158)
4(1517 1171 1787 1519)
4(1787 65 1158 1711)
4(1518 1400 1519 1711)
4(1787 1711 1518 1519)
4(1787 1518 1517 1519)
4(1518 1711 1787 1158)
4(1517 1518 1787 1158)
4(1290 1266 1789 1788)
4(1290 206 1666 1549)
4(1666 244 1788 1702)
4(1789 1384 1549 1702)