/*--------------------------------*- C++ -*----------------------------------*\
| =========                 |                                                 |
| \\      /  F ield         | OpenFOAM: The Open Source CFD Toolbox           |
|  \\    /   O peration     | Version:  v1806                                 |
|   \\  /    A nd           | Web:      www.OpenFOAM.com                      |
|    \\/     M anipulation  |                                                 |
\*---------------------------------------------------------------------------*/
FoamFile
{
    version     2.0;
    format      ascii;
    class       vectorField;
    object      currentcloudofpoints;
}
// * * * * * * * * * * * * * * * * * * * * * * * * * * * * * * * * * * * * * //

7210(
(	0.47		0.5		0.5		)
(	0.5		0.47		0.5		)
(	0.5		0.53		0.5		)
(	0.5		0.5		0.47		)
(	0.5		0.5		0.53		)
(	0.5		0.5		0.5		)
(	0.45		0.5		0.5		)
(	0.5		0.45		0.5		)
(	0.5		0.55		0.5		)
(	0.5		0.5		0.45		)
(	0.5		0.5		0.55		)
(	0.5		0.5298555418		0.5029405142		)
(	0.5		0.5294235584		0.5058527097		)
(	0.5		0.5287082101		0.5087085403		)
(	0.5		0.527716386		0.511480503		)
(	0.5		0.5264576379		0.5141419021		)
(	0.5		0.5249440884		0.516667107		)
(	0.5		0.5231903136		0.5190317985		)
(	0.5		0.5212132034		0.5212132034		)
(	0.5		0.5190317985		0.5231903136		)
(	0.5		0.516667107		0.5249440884		)
(	0.5		0.5141419021		0.5264576379		)
(	0.5		0.511480503		0.527716386		)
(	0.5		0.5087085403		0.5287082101		)
(	0.5		0.5058527097		0.5294235584		)
(	0.5		0.5029405142		0.5298555418		)
(	0.5		0.4701444582		0.5029405142		)
(	0.5		0.4705764416		0.5058527097		)
(	0.5		0.4712917899		0.5087085403		)
(	0.5		0.472283614		0.511480503		)
(	0.5		0.4735423621		0.5141419021		)
(	0.5		0.4750559116		0.516667107		)
(	0.5		0.4768096864		0.5190317985		)
(	0.5		0.4787867966		0.5212132034		)
(	0.5		0.4809682015		0.5231903136		)
(	0.5		0.483332893		0.5249440884		)
(	0.5		0.4858580979		0.5264576379		)
(	0.5		0.488519497		0.527716386		)
(	0.5		0.4912914597		0.5287082101		)
(	0.5		0.4941472903		0.5294235584		)
(	0.5		0.4970594858		0.5298555418		)
(	0.5		0.5298555418		0.4970594858		)
(	0.5		0.5294235584		0.4941472903		)
(	0.5		0.5287082101		0.4912914597		)
(	0.5		0.527716386		0.488519497		)
(	0.5		0.5264576379		0.4858580979		)
(	0.5		0.5249440884		0.483332893		)
(	0.5		0.5231903136		0.4809682015		)
(	0.5		0.5212132034		0.4787867966		)
(	0.5		0.5190317985		0.4768096864		)
(	0.5		0.516667107		0.4750559116		)
(	0.5		0.5141419021		0.4735423621		)
(	0.5		0.511480503		0.472283614		)
(	0.5		0.5087085403		0.4712917899		)
(	0.5		0.5058527097		0.4705764416		)
(	0.5		0.5029405142		0.4701444582		)
(	0.5		0.4970594858		0.4701444582		)
(	0.5		0.4941472903		0.4705764416		)
(	0.5		0.4912914597		0.4712917899		)
(	0.5		0.488519497		0.472283614		)
(	0.5		0.4858580979		0.4735423621		)
(	0.5		0.483332893		0.4750559116		)
(	0.5		0.4809682015		0.4768096864		)
(	0.5		0.4787867966		0.4787867966		)
(	0.5		0.4768096864		0.4809682015		)
(	0.5		0.4750559116		0.483332893		)
(	0.5		0.4735423621		0.4858580979		)
(	0.5		0.472283614		0.488519497		)
(	0.5		0.4712917899		0.4912914597		)
(	0.5		0.4705764416		0.4941472903		)
(	0.5		0.4701444582		0.4970594858		)
(	0.4970594858		0.5		0.5298555418		)
(	0.4941472903		0.5		0.5294235584		)
(	0.4912914597		0.5		0.5287082101		)
(	0.488519497		0.5		0.527716386		)
(	0.4858580979		0.5		0.5264576379		)
(	0.483332893		0.5		0.5249440884		)
(	0.4809682015		0.5		0.5231903136		)
(	0.4787867966		0.5		0.5212132034		)
(	0.4768096864		0.5		0.5190317985		)
(	0.4750559116		0.5		0.516667107		)
(	0.4735423621		0.5		0.5141419021		)
(	0.472283614		0.5		0.511480503		)
(	0.4712917899		0.5		0.5087085403		)
(	0.4705764416		0.5		0.5058527097		)
(	0.4701444582		0.5		0.5029405142		)
(	0.4701444582		0.5		0.4970594858		)
(	0.4705764416		0.5		0.4941472903		)
(	0.4712917899		0.5		0.4912914597		)
(	0.472283614		0.5		0.488519497		)
(	0.4735423621		0.5		0.4858580979		)
(	0.4750559116		0.5		0.483332893		)
(	0.4768096864		0.5		0.4809682015		)
(	0.4787867966		0.5		0.4787867966		)
(	0.4809682015		0.5		0.4768096864		)
(	0.483332893		0.5		0.4750559116		)
(	0.4858580979		0.5		0.4735423621		)
(	0.488519497		0.5		0.472283614		)
(	0.4912914597		0.5		0.4712917899		)
(	0.4941472903		0.5		0.4705764416		)
(	0.4970594858		0.5		0.4701444582		)
(	0.4970594858		0.4701444582		0.5		)
(	0.4941472903		0.4705764416		0.5		)
(	0.4912914597		0.4712917899		0.5		)
(	0.488519497		0.472283614		0.5		)
(	0.4858580979		0.4735423621		0.5		)
(	0.483332893		0.4750559116		0.5		)
(	0.4809682015		0.4768096864		0.5		)
(	0.4787867966		0.4787867966		0.5		)
(	0.4768096864		0.4809682015		0.5		)
(	0.4750559116		0.483332893		0.5		)
(	0.4735423621		0.4858580979		0.5		)
(	0.472283614		0.488519497		0.5		)
(	0.4712917899		0.4912914597		0.5		)
(	0.4705764416		0.4941472903		0.5		)
(	0.4701444582		0.4970594858		0.5		)
(	0.4701444582		0.5029405142		0.5		)
(	0.4705764416		0.5058527097		0.5		)
(	0.4712917899		0.5087085403		0.5		)
(	0.472283614		0.511480503		0.5		)
(	0.4735423621		0.5141419021		0.5		)
(	0.4750559116		0.516667107		0.5		)
(	0.4768096864		0.5190317985		0.5		)
(	0.4787867966		0.5212132034		0.5		)
(	0.4809682015		0.5231903136		0.5		)
(	0.483332893		0.5249440884		0.5		)
(	0.4858580979		0.5264576379		0.5		)
(	0.488519497		0.527716386		0.5		)
(	0.4912914597		0.5287082101		0.5		)
(	0.4941472903		0.5294235584		0.5		)
(	0.4970594858		0.5298555418		0.5		)
(	0.5		0.4502407637		0.504900857		)
(	0.5		0.450960736		0.5097545161		)
(	0.5		0.4521529832		0.5145142339		)
(	0.5		0.4538060234		0.5191341716		)
(	0.5		0.4559039368		0.5235698368		)
(	0.5		0.4584265194		0.5277785117		)
(	0.5		0.4613494773		0.5317196642		)
(	0.5		0.4646446609		0.5353553391		)
(	0.5		0.4682803358		0.5386505227		)
(	0.5		0.4722214883		0.5415734806		)
(	0.5		0.4764301632		0.5440960632		)
(	0.5		0.4808658284		0.5461939766		)
(	0.5		0.4854857661		0.5478470168		)
(	0.5		0.4902454839		0.549039264		)
(	0.5		0.495099143		0.5497592363		)
(	0.5		0.504900857		0.5497592363		)
(	0.5		0.5097545161		0.549039264		)
(	0.5		0.5145142339		0.5478470168		)
(	0.5		0.5191341716		0.5461939766		)
(	0.5		0.5235698368		0.5440960632		)
(	0.5		0.5277785117		0.5415734806		)
(	0.5		0.5317196642		0.5386505227		)
(	0.5		0.5353553391		0.5353553391		)
(	0.5		0.5386505227		0.5317196642		)
(	0.5		0.5415734806		0.5277785117		)
(	0.5		0.5440960632		0.5235698368		)
(	0.5		0.5461939766		0.5191341716		)
(	0.5		0.5478470168		0.5145142339		)
(	0.5		0.549039264		0.5097545161		)
(	0.5		0.5497592363		0.504900857		)
(	0.5		0.4502407637		0.495099143		)
(	0.5		0.450960736		0.4902454839		)
(	0.5		0.4521529832		0.4854857661		)
(	0.5		0.4538060234		0.4808658284		)
(	0.5		0.4559039368		0.4764301632		)
(	0.5		0.4584265194		0.4722214883		)
(	0.5		0.4613494773		0.4682803358		)
(	0.5		0.4646446609		0.4646446609		)
(	0.5		0.4682803358		0.4613494773		)
(	0.5		0.4722214883		0.4584265194		)
(	0.5		0.4764301632		0.4559039368		)
(	0.5		0.4808658284		0.4538060234		)
(	0.5		0.4854857661		0.4521529832		)
(	0.5		0.4902454839		0.450960736		)
(	0.5		0.495099143		0.4502407637		)
(	0.5		0.5497592363		0.495099143		)
(	0.5		0.549039264		0.4902454839		)
(	0.5		0.5478470168		0.4854857661		)
(	0.5		0.5461939766		0.4808658284		)
(	0.5		0.5440960632		0.4764301632		)
(	0.5		0.5415734806		0.4722214883		)
(	0.5		0.5386505227		0.4682803358		)
(	0.5		0.5353553391		0.4646446609		)
(	0.5		0.5317196642		0.4613494773		)
(	0.5		0.5277785117		0.4584265194		)
(	0.5		0.5235698368		0.4559039368		)
(	0.5		0.5191341716		0.4538060234		)
(	0.5		0.5145142339		0.4521529832		)
(	0.5		0.5097545161		0.450960736		)
(	0.5		0.504900857		0.4502407637		)
(	0.4502407637		0.5		0.504900857		)
(	0.450960736		0.5		0.5097545161		)
(	0.4521529832		0.5		0.5145142339		)
(	0.4538060234		0.5		0.5191341716		)
(	0.4559039368		0.5		0.5235698368		)
(	0.4584265194		0.5		0.5277785117		)
(	0.4613494773		0.5		0.5317196642		)
(	0.4646446609		0.5		0.5353553391		)
(	0.4682803358		0.5		0.5386505227		)
(	0.4722214883		0.5		0.5415734806		)
(	0.4764301632		0.5		0.5440960632		)
(	0.4808658284		0.5		0.5461939766		)
(	0.4854857661		0.5		0.5478470168		)
(	0.4902454839		0.5		0.549039264		)
(	0.495099143		0.5		0.5497592363		)
(	0.4502407637		0.5		0.495099143		)
(	0.450960736		0.5		0.4902454839		)
(	0.4521529832		0.5		0.4854857661		)
(	0.4538060234		0.5		0.4808658284		)
(	0.4559039368		0.5		0.4764301632		)
(	0.4584265194		0.5		0.4722214883		)
(	0.4613494773		0.5		0.4682803358		)
(	0.4646446609		0.5		0.4646446609		)
(	0.4682803358		0.5		0.4613494773		)
(	0.4722214883		0.5		0.4584265194		)
(	0.4764301632		0.5		0.4559039368		)
(	0.4808658284		0.5		0.4538060234		)
(	0.4854857661		0.5		0.4521529832		)
(	0.4902454839		0.5		0.450960736		)
(	0.495099143		0.5		0.4502407637		)
(	0.495099143		0.4502407637		0.5		)
(	0.4902454839		0.450960736		0.5		)
(	0.4854857661		0.4521529832		0.5		)
(	0.4808658284		0.4538060234		0.5		)
(	0.4764301632		0.4559039368		0.5		)
(	0.4722214883		0.4584265194		0.5		)
(	0.4682803358		0.4613494773		0.5		)
(	0.4646446609		0.4646446609		0.5		)
(	0.4613494773		0.4682803358		0.5		)
(	0.4584265194		0.4722214883		0.5		)
(	0.4559039368		0.4764301632		0.5		)
(	0.4538060234		0.4808658284		0.5		)
(	0.4521529832		0.4854857661		0.5		)
(	0.450960736		0.4902454839		0.5		)
(	0.4502407637		0.495099143		0.5		)
(	0.4502407637		0.504900857		0.5		)
(	0.450960736		0.5097545161		0.5		)
(	0.4521529832		0.5145142339		0.5		)
(	0.4538060234		0.5191341716		0.5		)
(	0.4559039368		0.5235698368		0.5		)
(	0.4584265194		0.5277785117		0.5		)
(	0.4613494773		0.5317196642		0.5		)
(	0.4646446609		0.5353553391		0.5		)
(	0.4682803358		0.5386505227		0.5		)
(	0.4722214883		0.5415734806		0.5		)
(	0.4764301632		0.5440960632		0.5		)
(	0.4808658284		0.5461939766		0.5		)
(	0.4854857661		0.5478470168		0.5		)
(	0.4902454839		0.549039264		0.5		)
(	0.495099143		0.5497592363		0.5		)
(	0.5		0.5		0.4525		)
(	0.5		0.5		0.455		)
(	0.5		0.5		0.4575		)
(	0.5		0.5		0.46		)
(	0.5		0.5		0.4625		)
(	0.5		0.5		0.465		)
(	0.5		0.5		0.4675		)
(	0.5		0.5		0.5325		)
(	0.5		0.5		0.535		)
(	0.5		0.5		0.5375		)
(	0.5		0.5		0.54		)
(	0.5		0.5		0.5425		)
(	0.5		0.5		0.545		)
(	0.5		0.5		0.5475		)
(	0.5		0.4675		0.5		)
(	0.5		0.465		0.5		)
(	0.5		0.4625		0.5		)
(	0.5		0.46		0.5		)
(	0.5		0.4575		0.5		)
(	0.5		0.455		0.5		)
(	0.5		0.4525		0.5		)
(	0.5		0.5325		0.5		)
(	0.5		0.535		0.5		)
(	0.5		0.5375		0.5		)
(	0.5		0.54		0.5		)
(	0.5		0.5425		0.5		)
(	0.5		0.545		0.5		)
(	0.5		0.5475		0.5		)
(	0.4795875747		0.5408248184		0.5204124251		)
(	0.4591693523		0.5204119517		0.520401236		)
(	0.4779160973		0.5204239844		0.5399394805		)
(	0.4894335651		0.5394334654		0.5288678413		)
(	0.4895103709		0.5445289341		0.5201777528		)
(	0.4797692416		0.5445159976		0.5104423357		)
(	0.4899699853		0.5479457778		0.5100300147		)
(	0.4710028306		0.5393533226		0.5105109547		)
(	0.4554526314		0.5104186477		0.5201738379		)
(	0.4605515725		0.5105349178		0.5288589168		)
(	0.4520139398		0.5099365299		0.5099299247		)
(	0.4554693031		0.5201607679		0.5105147739		)
(	0.4605629083		0.5288651666		0.5105602064		)
(	0.4882540618		0.5290338921		0.5389751978		)
(	0.4778469039		0.5319286553		0.5314611078		)
(	0.4673029091		0.5211464034		0.5313644683		)
(	0.4678818099		0.5318977937		0.5212356451		)
(	0.4699936036		0.5103748352		0.5386261436		)
(	0.4897340315		0.5099038269		0.5479220628		)
(	0.4788944626		0.5104580132		0.5441042657		)
(	0.4886100993		0.5203032143		0.5442498548		)
(	0.4946711605		0.5377170249		0.5323887249		)
(	0.4946801149		0.5407383437		0.5284971257		)
(	0.489418099		0.5421958445		0.5246482064		)
(	0.4947081146		0.5434357259		0.5241936699		)
(	0.4843761643		0.5404743829		0.5248539752		)
(	0.4844357821		0.5429220075		0.5203827475		)
(	0.4947231792		0.5456208704		0.5197709722		)
(	0.4795625463		0.5429136897		0.5155153383		)
(	0.484492012		0.5449507931		0.5154573125		)
(	0.4847717938		0.546501614		0.51028113		)
(	0.4896806068		0.5465051513		0.5151914788		)
(	0.4802053171		0.5456135747		0.5052509359		)
(	0.4852415595		0.5475034509		0.5050606903		)
(	0.494937479		0.5475151507		0.5147200997		)
(	0.4750714262		0.5404412162		0.5155908384		)
(	0.4752503503		0.5421520374		0.5105195334		)
(	0.4714447716		0.5407019926		0.5052864661		)
(	0.4757704349		0.5434204666		0.5052527377		)
(	0.4675127192		0.5376399813		0.5052733667		)
(	0.4949397593		0.548739926		0.5099405017		)
(	0.4900569475		0.5487414249		0.5050407547		)
(	0.4950751939		0.5495125496		0.5049248061		)
(	0.4592317906		0.5053003486		0.5284580289		)
(	0.4622754902		0.5053109391		0.5323829474		)
(	0.4565572846		0.5052555723		0.5241890355		)
(	0.4577874472		0.5105303305		0.5246416826		)
(	0.4543649847		0.5052440513		0.5197470327		)
(	0.4570587002		0.5154981664		0.52039244		)
(	0.4595095279		0.5155986317		0.5248435979		)
(	0.45246423		0.5050152943		0.5146696077		)
(	0.4534602392		0.5102376526		0.5151407111		)
(	0.4534646758		0.5151259306		0.510279583		)
(	0.4550356985		0.515435649		0.5154903949		)
(	0.4524644042		0.5146714353		0.5050115987		)
(	0.4543696451		0.519739869		0.5053111474		)
(	0.457081368		0.5203972774		0.5155544881		)
(	0.4512432488		0.5049932625		0.5098917411		)
(	0.4504863517		0.5049159356		0.5049226226		)
(	0.4512435661		0.5098949959		0.5049899109		)
(	0.4577966169		0.5246307901		0.5105923854		)
(	0.4595200271		0.5248510022		0.5156140798		)
(	0.456560785		0.5241845472		0.5053049294		)
(	0.459241136		0.5284633659		0.5053433893		)
(	0.4622811562		0.5323871318		0.505325647		)
(	0.4940695124		0.532505817		0.5375260067		)
(	0.4887147829		0.5345900752		0.5342953434		)
(	0.482900652		0.5307430841		0.5355313253		)
(	0.4834154466		0.5360361418		0.5304359832		)
(	0.4828293329		0.5249592123		0.539776952		)
(	0.4776521008		0.5264478047		0.5360705562		)
(	0.4784965073		0.5367540145		0.526205767		)
(	0.4723521003		0.5209666959		0.5359998792		)
(	0.4721828756		0.5268150952		0.5317357568		)
(	0.4672323618		0.5268167172		0.5265922088		)
(	0.4725832222		0.5322434772		0.5266210157		)
(	0.462869145		0.5209301843		0.5261386112		)
(	0.46310655		0.5264035491		0.5210172772		)
(	0.4734114117		0.5367482749		0.5210383285		)
(	0.4736415229		0.5154965522		0.5395611875		)
(	0.4683686329		0.5159011927		0.5353073461		)
(	0.4649495875		0.5105467965		0.5340622029		)
(	0.4635724742		0.5159365128		0.5303160506		)
(	0.4670122944		0.5052033954		0.5372120405		)
(	0.4691629884		0.535951213		0.5160183956		)
(	0.4638672755		0.5306211306		0.516024125		)
(	0.4653894714		0.534477749		0.5106487619		)
(	0.4950756595		0.5049243384		0.5495126424		)
(	0.4899395335		0.5049767586		0.5487239047		)
(	0.4948162502		0.5098825699		0.5487387274		)
(	0.4850891704		0.5049793638		0.5474644403		)
(	0.494784653		0.5146586289		0.5475176257		)
(	0.4797607632		0.5052600332		0.545417016		)
(	0.4842018103		0.5102288625		0.5463226464		)
(	0.483472421		0.5155265981		0.5445619107		)
(	0.489102942		0.5151949441		0.5463720584		)
(	0.4782771443		0.5155326204		0.5422712106		)
(	0.4831222706		0.5204729894		0.5423792279		)
(	0.4942642823		0.5198544253		0.5455291482		)
(	0.4752733374		0.5052500806		0.5431396432		)
(	0.4709307212		0.5052191651		0.540345227		)
(	0.4742925985		0.510457181		0.5415905864		)
(	0.4942482023		0.5242739269		0.5433323585		)
(	0.4883713521		0.5247980564		0.5418309807		)
(	0.494083219		0.528616582		0.5405719476		)
(	0.4591693522		0.479598764		0.5204119517		)
(	0.4779160972		0.4600605195		0.5204239844		)
(	0.4795875746		0.4795875749		0.5408248183		)
(	0.4554526314		0.4798261621		0.5104186476		)
(	0.4605515725		0.4711410833		0.5105349178		)
(	0.4520139399		0.4900700753		0.5099365299		)
(	0.4554693031		0.4894852261		0.5201607678		)
(	0.4605629083		0.4894397936		0.5288651666		)
(	0.4897340316		0.4520779372		0.5099038269		)
(	0.4788944625		0.4558957344		0.5104580132		)
(	0.4886100993		0.4557501452		0.5203032143		)
(	0.4699936036		0.4613738564		0.5103748352		)
(	0.4882540618		0.4610248022		0.5290338921		)
(	0.489433565		0.4711321587		0.5394334654		)
(	0.4895103709		0.4798222472		0.5445289341		)
(	0.4797692416		0.4895576643		0.5445159976		)
(	0.4899699853		0.4899699853		0.5479457778		)
(	0.4710028306		0.4894890453		0.5393533226		)
(	0.4673029091		0.4686355317		0.5211464033		)
(	0.4678818099		0.4787643549		0.5318977937		)
(	0.4778469039		0.4685388922		0.5319286553		)
(	0.4592317906		0.4715419711		0.5053003485		)
(	0.4622754902		0.4676170526		0.505310939		)
(	0.4565572846		0.4758109646		0.5052555723		)
(	0.4577874471		0.4753583174		0.5105303305		)
(	0.4543649847		0.4802529673		0.5052440513		)
(	0.4570587002		0.4796075601		0.5154981664		)
(	0.4595095279		0.4751564021		0.5155986317		)
(	0.45246423		0.4853303923		0.5050152943		)
(	0.4534602392		0.4848592889		0.5102376526		)
(	0.4534646758		0.489720417		0.5151259306		)
(	0.4550356985		0.4845096052		0.515435649		)
(	0.4524644042		0.4949884013		0.5146714353		)
(	0.4543696451		0.4946888527		0.519739869		)
(	0.457081368		0.4844455119		0.5203972774		)
(	0.4512432488		0.4901082589		0.5049932625		)
(	0.4504863517		0.4950773774		0.5049159356		)
(	0.4512435661		0.4950100891		0.5098949959		)
(	0.4577966168		0.4894076146		0.5246307901		)
(	0.4595200271		0.4843859203		0.5248510022		)
(	0.456560785		0.4946950706		0.5241845472		)
(	0.459241136		0.4946566108		0.5284633659		)
(	0.4622811562		0.494674353		0.5323871318		)
(	0.4950756602		0.4504873578		0.5049243412		)
(	0.4899395335		0.4512760953		0.5049767586		)
(	0.4948162502		0.4512612726		0.5098825699		)
(	0.4850891704		0.4525355596		0.5049793638		)
(	0.4947846531		0.4524823743		0.5146586289		)
(	0.4797607631		0.454582984		0.5052600332		)
(	0.4842018103		0.4536773536		0.5102288625		)
(	0.483472421		0.4554380893		0.5155265981		)
(	0.489102942		0.4536279416		0.5151949441		)
(	0.4782771442		0.4577287894		0.5155326204		)
(	0.4831222705		0.4576207721		0.5204729893		)
(	0.4942642823		0.4544708518		0.5198544253		)
(	0.4752733374		0.4568603568		0.5052500806		)
(	0.4709307212		0.459654773		0.5052191651		)
(	0.4742925985		0.4584094137		0.510457181		)
(	0.4670122944		0.4627879595		0.5052033954		)
(	0.4736415228		0.4604388125		0.5154965521		)
(	0.4942482023		0.4566676415		0.5242739269		)
(	0.4883713521		0.4581690193		0.5247980564		)
(	0.494083219		0.4594280523		0.528616582		)
(	0.4828293329		0.460223048		0.5249592123		)
(	0.4940695124		0.4624739933		0.532505817		)
(	0.4946711605		0.467611275		0.5377170249		)
(	0.4946801149		0.4715028743		0.5407383437		)
(	0.489418099		0.4753517936		0.5421958445		)
(	0.4947081146		0.4758063301		0.5434357259		)
(	0.4843761643		0.4751460248		0.5404743829		)
(	0.484435782		0.4796172525		0.5429220074		)
(	0.4947231792		0.4802290278		0.5456208704		)
(	0.4795625463		0.4844846617		0.5429136897		)
(	0.484492012		0.4845426874		0.5449507931		)
(	0.4847717938		0.48971887		0.546501614		)
(	0.4896806068		0.4848085212		0.5465051513		)
(	0.4802053171		0.4947490641		0.5456135747		)
(	0.4852415595		0.4949393097		0.5475034509		)
(	0.494937479		0.4852799003		0.5475151507		)
(	0.4750714261		0.4844091616		0.5404412161		)
(	0.4752503502		0.4894804665		0.5421520373		)
(	0.4714447715		0.4947135339		0.5407019926		)
(	0.4757704349		0.4947472623		0.5434204666		)
(	0.4675127192		0.4947266333		0.5376399812		)
(	0.4949397593		0.4900594983		0.548739926		)
(	0.4900569475		0.4949592453		0.5487414249		)
(	0.4950751939		0.4950751939		0.5495125496		)
(	0.4649495875		0.4659377971		0.5105467965		)
(	0.4635724742		0.4696839494		0.5159365127		)
(	0.4683686329		0.4646926539		0.5159011927		)
(	0.462869145		0.4738613888		0.5209301842		)
(	0.4723521003		0.4640001208		0.5209666959		)
(	0.4631065499		0.4789827229		0.5264035491		)
(	0.4672323618		0.4734077912		0.5268167171		)
(	0.4725832221		0.4733789843		0.5322434771		)
(	0.4721828755		0.4682642432		0.5268150951		)
(	0.4734114116		0.4789616715		0.5367482748		)
(	0.4784965072		0.473794233		0.5367540144		)
(	0.4776521008		0.4639294438		0.5264478047		)
(	0.4638672755		0.483975875		0.5306211306		)
(	0.4653894714		0.4893512381		0.534477749		)
(	0.4691629884		0.4839816044		0.535951213		)
(	0.4829006519		0.4644686747		0.5307430841		)
(	0.4834154466		0.4695640168		0.5360361417		)
(	0.4887147829		0.4657046566		0.5345900751		)
(	0.4590378639		0.4797255899		0.47972559		)
(	0.4795847078		0.4591794501		0.4795819064		)
(	0.4795847077		0.4795819061		0.4591794502		)
(	0.4520158509		0.4900621573		0.4900621574		)
(	0.4554251654		0.4896401587		0.4798565691		)
(	0.4554251654		0.479856569		0.4896401588		)
(	0.460455321		0.4896906654		0.4711913905		)
(	0.460455321		0.4711913904		0.4896906655		)
(	0.4710183728		0.4607026358		0.4892397747		)
(	0.4797567415		0.4554943844		0.4895376548		)
(	0.4894406749		0.4554596784		0.4798838273		)
(	0.4900237982		0.4520204778		0.490078264		)
(	0.4894323232		0.4605686675		0.4711297		)
(	0.4797567415		0.4895376547		0.4554943845		)
(	0.4710183727		0.4892397745		0.4607026359		)
(	0.4900237982		0.490078264		0.4520204778		)
(	0.4894406749		0.4798838272		0.4554596784		)
(	0.4894323231		0.4711296998		0.4605686676		)
(	0.4678080564		0.4679654909		0.4790842405		)
(	0.4678080564		0.4790842403		0.467965491		)
(	0.4786773603		0.4680207485		0.4680207488		)
(	0.4504873574		0.4950756615		0.4950756615		)
(	0.4512440319		0.4950059842		0.4901047801		)
(	0.4512440319		0.4901047801		0.4950059842		)
(	0.4524654444		0.494985304		0.4853262531		)
(	0.4524654444		0.4853262531		0.4949853041		)
(	0.4543576368		0.494783629		0.4802626204		)
(	0.4534495276		0.4897921426		0.4848721062		)
(	0.4549857817		0.4846097408		0.4846097409		)
(	0.4534495276		0.4848721062		0.4897921427		)
(	0.4569903237		0.484598032		0.4796788994		)
(	0.4569903237		0.4796788993		0.4845980321		)
(	0.4543576368		0.4802626204		0.494783629		)
(	0.4565446172		0.4947744363		0.4758272221		)
(	0.4592020581		0.4948043285		0.4715652864		)
(	0.4577264544		0.4896137971		0.4754017454		)
(	0.462233833		0.4948019694		0.4676473014		)
(	0.4593718251		0.4846084531		0.4752522387		)
(	0.4565446172		0.4758272221		0.4947744363		)
(	0.4577264544		0.4754017453		0.4896137972		)
(	0.4592020582		0.4715652864		0.4948043285		)
(	0.4593718251		0.4752522387		0.4846084532		)
(	0.462233833		0.4676473014		0.4948019694		)
(	0.4674853304		0.4624156777		0.4945031847		)
(	0.4714269235		0.4593247096		0.494605554		)
(	0.4752547957		0.4578775602		0.4893522338		)
(	0.4757756084		0.4565791994		0.4947262034		)
(	0.4750792036		0.4596034642		0.4842814187		)
(	0.4795514189		0.4570986592		0.4844651847		)
(	0.4801974825		0.45439117		0.4947374028		)
(	0.4843987643		0.4570756685		0.4796504741		)
(	0.4844505426		0.4550553852		0.4845664012		)
(	0.4896721109		0.4534691906		0.4848930981		)
(	0.4847930848		0.453480901		0.4897665664		)
(	0.4946896617		0.4543692605		0.4802608024		)
(	0.49496299		0.4524653673		0.4853341478		)
(	0.4853025196		0.4524717145		0.494995387		)
(	0.4843747877		0.4595278896		0.4751431896		)
(	0.4893807266		0.457799143		0.4753764605		)
(	0.4946848009		0.4592576135		0.47150778		)
(	0.4946628464		0.4565548707		0.475833173		)
(	0.4946705745		0.4622840477		0.4676101224		)
(	0.4900736905		0.4512500957		0.4950084857		)
(	0.4949650628		0.4512468164		0.4901118002		)
(	0.4950549399		0.4504882917		0.4950870451		)
(	0.4714269235		0.4946055538		0.4593247096		)
(	0.4674853304		0.4945031846		0.4624156777		)
(	0.4757756084		0.4947262032		0.4565791995		)
(	0.4752547956		0.4893522336		0.4578775602		)
(	0.4801974825		0.4947374027		0.45439117		)
(	0.4795514189		0.4844651845		0.4570986593		)
(	0.4750792035		0.4842814184		0.4596034643		)
(	0.4853025196		0.494995387		0.4524717145		)
(	0.4847930848		0.4897665663		0.4534809011		)
(	0.4896721109		0.484893098		0.4534691906		)
(	0.4844505426		0.4845664011		0.4550553852		)
(	0.49496299		0.4853341478		0.4524653673		)
(	0.4946896617		0.4802608023		0.4543692605		)
(	0.4843987642		0.4796504739		0.4570756686		)
(	0.4900736905		0.4950084857		0.4512500958		)
(	0.4950549399		0.4950870451		0.4504882917		)
(	0.4949650628		0.4901118002		0.4512468164		)
(	0.4893807266		0.4753764603		0.4577991431		)
(	0.4843747877		0.4751431894		0.4595278898		)
(	0.4946628464		0.4758331729		0.4565548707		)
(	0.494684801		0.4715077799		0.4592576136		)
(	0.4946705745		0.4676101223		0.4622840478		)
(	0.4653341883		0.4655666303		0.4893875286		)
(	0.463723615		0.4694243168		0.4842154669		)
(	0.4691278554		0.4640345542		0.4840815392		)
(	0.4629932628		0.4735326863		0.4792639757		)
(	0.4733783974		0.4631455567		0.4791903801		)
(	0.4629932628		0.4792639755		0.4735326864		)
(	0.467345785		0.4732259244		0.4732259245		)
(	0.4729102984		0.4732255893		0.4676074237		)
(	0.4729102984		0.4676074235		0.4732255895		)
(	0.4733783973		0.4791903799		0.4631455568		)
(	0.4789055396		0.4735182441		0.4632067894		)
(	0.4789055396		0.4632067892		0.4735182444		)
(	0.463723615		0.4842154667		0.4694243169		)
(	0.4653341883		0.4893875284		0.4655666303		)
(	0.4691278553		0.484081539		0.4640345544		)
(	0.4839075096		0.4639674241		0.4692968206		)
(	0.4839075096		0.4692968204		0.4639674243		)
(	0.4893124375		0.4654617891		0.4654617893		)
(	0.4779160973		0.5399394805		0.4795760156		)
(	0.4591693522		0.5204012359		0.4795880483		)
(	0.4795875747		0.5204124251		0.4591751816		)
(	0.4897340316		0.5479220628		0.4900961731		)
(	0.4788944626		0.5441042657		0.4895419868		)
(	0.4886100993		0.5442498548		0.4796967857		)
(	0.4700180622		0.5386332503		0.4895810086		)
(	0.4882540618		0.5389751978		0.4709661079		)
(	0.4554526314		0.5201738378		0.4895813523		)
(	0.4605515725		0.5288589166		0.4894650822		)
(	0.4520139399		0.5099299247		0.4900634701		)
(	0.455469303		0.5105147738		0.4798392322		)
(	0.4605629083		0.5105602063		0.4711348334		)
(	0.4778469039		0.5314611077		0.4680713446		)
(	0.4894335651		0.5288678413		0.4605665346		)
(	0.4673029091		0.5313644683		0.4788535967		)
(	0.4678818099		0.521235645		0.4681022063		)
(	0.4710028306		0.5105109547		0.4606466774		)
(	0.4899699853		0.5100300147		0.4520542222		)
(	0.4895103709		0.5201777528		0.4554710659		)
(	0.4797692416		0.5104423357		0.4554840024		)
(	0.4950756595		0.5495126424		0.4950756616		)
(	0.4899395335		0.5487239047		0.4950232414		)
(	0.4948162502		0.5487387274		0.4901174301		)
(	0.4850891704		0.5474644404		0.4950206362		)
(	0.4947846531		0.5475176257		0.4853413711		)
(	0.4797607632		0.545417016		0.4947399668		)
(	0.4842018104		0.5463226465		0.4897711375		)
(	0.483472421		0.5445619107		0.4844734019		)
(	0.489102942		0.5463720584		0.4848050559		)
(	0.4782771443		0.5422712106		0.4844673796		)
(	0.4831222706		0.5423792279		0.4795270106		)
(	0.4942642823		0.5455291482		0.4801455747		)
(	0.4752733375		0.5431396432		0.4947499194		)
(	0.4709418959		0.5403503705		0.4947584179		)
(	0.4743063789		0.5415936669		0.4895212256		)
(	0.4670220282		0.5372175341		0.4947742431		)
(	0.4736563283		0.5395625938		0.4844818773		)
(	0.4942482023		0.5433323585		0.4757260731		)
(	0.4883713521		0.5418309807		0.4752019436		)
(	0.494083219		0.5405719477		0.471383418		)
(	0.4828293329		0.539776952		0.4750407877		)
(	0.4940695124		0.5375260067		0.467494183		)
(	0.4592317906		0.5284580289		0.4946996514		)
(	0.4622754901		0.5323829474		0.4946890609		)
(	0.4565572846		0.5241890354		0.4947444277		)
(	0.4577874471		0.5246416825		0.4894696695		)
(	0.4543649847		0.5197470327		0.4947559487		)
(	0.4570587001		0.5203924399		0.4845018336		)
(	0.4595095278		0.5248435978		0.4844013683		)
(	0.4524642299		0.5146696077		0.4949847057		)
(	0.4534602392		0.5151407111		0.4897623474		)
(	0.4534646758		0.510279583		0.4848740694		)
(	0.4550356985		0.5154903948		0.484564351		)
(	0.4524644042		0.5050115987		0.4853285647		)
(	0.4543696451		0.5053111473		0.480260131		)
(	0.457081368		0.515554488		0.4796027226		)
(	0.4512432488		0.5098917411		0.4950067375		)
(	0.4504863517		0.5049226226		0.4950840644		)
(	0.4512435661		0.5049899109		0.4901050041		)
(	0.4577966168		0.5105923854		0.4753692099		)
(	0.4595200271		0.5156140797		0.4751489978		)
(	0.456560785		0.5053049294		0.4758154528		)
(	0.459241136		0.5053433892		0.4715366341		)
(	0.4622811562		0.505325647		0.4676128682		)
(	0.488714783		0.5342953434		0.4654099248		)
(	0.4946711605		0.532388725		0.4622829751		)
(	0.482900652		0.5355313252		0.4692569158		)
(	0.4834154466		0.5304359832		0.4639638582		)
(	0.4776521008		0.5360705562		0.4735521952		)
(	0.4784965073		0.5262057669		0.4632459855		)
(	0.4843761643		0.5248539752		0.4595256171		)
(	0.4723521003		0.5359998792		0.4790333041		)
(	0.4721828755		0.5317357568		0.4731849048		)
(	0.4672323618		0.5265922087		0.4731832828		)
(	0.4725832222		0.5266210156		0.4677565228		)
(	0.462869145		0.5261386111		0.4790698157		)
(	0.4631065499		0.5210172771		0.4735964509		)
(	0.4734114117		0.5210383285		0.4632517251		)
(	0.4683821143		0.5353096414		0.4840771067		)
(	0.4649600471		0.5340664039		0.4894320377		)
(	0.4635724741		0.5303160505		0.4840634872		)
(	0.4691629884		0.5160183956		0.464048787		)
(	0.4750714262		0.5155908384		0.4595587838		)
(	0.4638672755		0.5160241249		0.4693788694		)
(	0.4653894714		0.5106487619		0.465522251		)
(	0.4675127192		0.5052733667		0.4623600187		)
(	0.4950751939		0.5049248061		0.4504874504		)
(	0.4949397593		0.5099405017		0.451260074		)
(	0.4900569475		0.5050407547		0.4512585751		)
(	0.494937479		0.5147200997		0.4524848493		)
(	0.4852415595		0.5050606903		0.4524965491		)
(	0.4947231792		0.5197709722		0.4543791296		)
(	0.4896806068		0.5151914788		0.4534948487		)
(	0.4844920121		0.5154573125		0.4550492069		)
(	0.4847717939		0.51028113		0.453498386		)
(	0.4844357821		0.5203827475		0.4570779925		)
(	0.4795625463		0.5155153383		0.4570863103		)
(	0.4802053171		0.5052509359		0.4543864253		)
(	0.4947081146		0.5241936699		0.4565642741		)
(	0.4946801149		0.5284971257		0.4592616563		)
(	0.489418099		0.5246482064		0.4578041555		)
(	0.4757704349		0.5052527377		0.4565795334		)
(	0.4752503503		0.5105195335		0.4578479626		)
(	0.4714447716		0.5052864661		0.4592980074		)
(	0.4877168451		0.4877843228		0.5244928834		)
(	0.4755051026		0.4877525514		0.5122474488		)
(	0.4877168452		0.4755071166		0.5122156773		)
(	0.4936450003		0.4879458132		0.526726589		)
(	0.4936166955		0.4827016229		0.5236647327		)
(	0.4940211273		0.4940244416		0.5287844712		)
(	0.4878388787		0.493742318		0.5267010963		)
(	0.4825945664		0.4935607886		0.5235709023		)
(	0.4712095105		0.4940372944		0.5059627056		)