/*--------------------------------*- C++ -*----------------------------------*\
| =========                 |                                                 |
| \\      /  F ield         | OpenFOAM: The Open Source CFD Toolbox           |
|  \\    /   O peration     | Version:  v1806                                 |
|   \\  /    A nd           | Web:      www.OpenFOAM.com                      |
|    \\/     M anipulation  |                                                 |
\*---------------------------------------------------------------------------*/
FoamFile
{
    version     2.0;
    format      ascii;
    class       polyBoundaryMesh;
    location    "constant/polyMesh";
    object      boundary;
}
// * * * * * * * * * * * * * * * * * * * * * * * * * * * * * * * * * * * * * //

3
(
    movingWall
    {
        type            wall;
        inGroups        1(wall);
        nFaces          1600;
        startFace       187200;
    }
    fixedWalls
    {
        type            wall;
        inGroups        1(wall);
        nFaces          4800;
        startFace       188800;
    }
    frontAndBack
    {
        type            wall;
        inGroups        1(wall);
        nFaces          3200;
        startFace       193600;
    }
)

// ************************************************************************* //
